CM Example file by Dimitry Fedorov, UA3AVR
CE
SY F=2450
SY AH=3
SY W=3.861e-4	'0.0003861
SY A=0.334237	'0.3342
SY G=0.521863	'0.5219
SY STUB1=0.978399	'0.980325
SY STUB2=STUB1	'0.983705
SY STUB3=STUB1	'0.981504
SY STUB4=0.286648	'0.2863
GW	1	11	0	-A	0	0	A	0	W
GM	1	3	0	0	0	0	0	G	0
GW	10	11	-W	0	-STUB4	W	0	-STUB4	W
GM	0	0	0	0	0	0	0	AH	0
GS	0	0	299.80/F
GE	0
GN	-1
EK
EX	0	10	6	0	1.0000	0	0
TL	2	6	1	6	50	STUB1	0	0	0	0
TL	3	6	2	6	50	STUB2	0	0	0	0
TL	4	6	3	6	50	STUB3	0	0	0	0
TL	1	6	10	6	25	STUB4	0	0	0	0
FR	0	0	0	0	F	0
RP	0	181	1	1000	90	0	-1	0		
EN
