CM Length X1 = .15
CM Length X2 = .15
CM Length Y = .3
CM Length Z1 = .05
CM Length Z2 = .05
CM X sections = 8
CM Y sections = 15
CM Z sections = 3
CM Rotate X, Y, Z = 0, 0, 0
CM Move X, Y, Z = 0, 0, 0
CE
GW   100    3    -.075     -.15   18.025    -.075     -.15   18.008  .001404
GW   101    3    -.075     -.15   18.008    -.075     -.15   17.992  .001404
GW   102    3    -.075     -.15   17.992    -.075     -.15   17.975  .001404
GW   103    3  -.05625     -.15   18.025  -.05625     -.15   18.008  .001404
GW   104    3  -.05625     -.15   18.008  -.05625     -.15   17.992  .001404
GW   105    3  -.05625     -.15   17.992  -.05625     -.15   17.975  .001404
GW   106    3   -.0375     -.15   18.025   -.0375     -.15   18.008  .001404
GW   107    3   -.0375     -.15   18.008   -.0375     -.15   17.992  .001404
GW   108    3   -.0375     -.15   17.992   -.0375     -.15   17.975  .001404
GW   109    3  -.01875     -.15   18.025  -.01875     -.15   18.008  .001404
GW   110    3  -.01875     -.15   18.008  -.01875     -.15   17.992  .001404
GW   111    3  -.01875     -.15   17.992  -.01875     -.15   17.975  .001404
GW   112    3       .0     -.15   18.025       .0     -.15   18.008  .001404
GW   113    3       .0     -.15   18.008       .0     -.15   17.992  .001404
GW   114    3       .0     -.15   17.992       .0     -.15   17.975  .001404
GW   115    3   .01875     -.15   18.025   .01875     -.15   18.008  .001404
GW   116    3   .01875     -.15   18.008   .01875     -.15   17.992  .001404
GW   117    3   .01875     -.15   17.992   .01875     -.15   17.975  .001404
GW   118    3    .0375     -.15   18.025    .0375     -.15   18.008  .001404
GW   119    3    .0375     -.15   18.008    .0375     -.15   17.992  .001404
GW   120    3    .0375     -.15   17.992    .0375     -.15   17.975  .001404
GW   121    3   .05625     -.15   18.025   .05625     -.15   18.008  .001404
GW   122    3   .05625     -.15   18.008   .05625     -.15   17.992  .001404
GW   123    3   .05625     -.15   17.992   .05625     -.15   17.975  .001404
GW   124    3     .075     -.15   18.025     .075     -.15   18.008  .001404
GW   125    3     .075     -.15   18.008     .075     -.15   17.992  .001404
GW   126    3     .075     -.15   17.992     .075     -.15   17.975  .001404
GW   127    3    -.075     -.15   18.025  -.05625     -.15   18.025  .001404
GW   128    3  -.05625     -.15   18.025   -.0375     -.15   18.025  .001404
GW   129    3   -.0375     -.15   18.025  -.01875     -.15   18.025  .001404
GW   130    3  -.01875     -.15   18.025       .0     -.15   18.025  .001404
GW   131    3       .0     -.15   18.025   .01875     -.15   18.025  .001404
GW   132    3   .01875     -.15   18.025    .0375     -.15   18.025  .001404
GW   133    3    .0375     -.15   18.025   .05625     -.15   18.025  .001404
GW   134    3   .05625     -.15   18.025     .075     -.15   18.025  .001404
GW   135    3    -.075     -.15   18.008  -.05625     -.15   18.008  .001404
GW   136    3  -.05625     -.15   18.008   -.0375     -.15   18.008  .001404
GW   137    3   -.0375     -.15   18.008  -.01875     -.15   18.008  .001404
GW   138    3  -.01875     -.15   18.008       .0     -.15   18.008  .001404
GW   139    3       .0     -.15   18.008   .01875     -.15   18.008  .001404
GW   140    3   .01875     -.15   18.008    .0375     -.15   18.008  .001404
GW   141    3    .0375     -.15   18.008   .05625     -.15   18.008  .001404
GW   142    3   .05625     -.15   18.008     .075     -.15   18.008  .001404
GW   143    3    -.075     -.15   17.992  -.05625     -.15   17.992  .001404
GW   144    3  -.05625     -.15   17.992   -.0375     -.15   17.992  .001404
GW   145    3   -.0375     -.15   17.992  -.01875     -.15   17.992  .001404
GW   146    3  -.01875     -.15   17.992       .0     -.15   17.992  .001404
GW   147    3       .0     -.15   17.992   .01875     -.15   17.992  .001404
GW   148    3   .01875     -.15   17.992    .0375     -.15   17.992  .001404
GW   149    3    .0375     -.15   17.992   .05625     -.15   17.992  .001404
GW   150    3   .05625     -.15   17.992     .075     -.15   17.992  .001404
GW   151    3    -.075     -.15   17.975  -.05625     -.15   17.975  .001404
GW   152    3  -.05625     -.15   17.975   -.0375     -.15   17.975  .001404
GW   153    3   -.0375     -.15   17.975  -.01875     -.15   17.975  .001404
GW   154    3  -.01875     -.15   17.975       .0     -.15   17.975  .001404
GW   155    3       .0     -.15   17.975   .01875     -.15   17.975  .001404
GW   156    3   .01875     -.15   17.975    .0375     -.15   17.975  .001404
GW   157    3    .0375     -.15   17.975   .05625     -.15   17.975  .001404
GW   158    3   .05625     -.15   17.975     .075     -.15   17.975  .001404
GW   159    3    -.075      .15   18.025    -.075      .15   18.008  .001404
GW   160    3    -.075      .15   18.008    -.075      .15   17.992  .001404
GW   161    3    -.075      .15   17.992    -.075      .15   17.975  .001404
GW   162    3  -.05625      .15   18.025  -.05625      .15   18.008  .001404
GW   163    3  -.05625      .15   18.008  -.05625      .15   17.992  .001404
GW   164    3  -.05625      .15   17.992  -.05625      .15   17.975  .001404
GW   165    3   -.0375      .15   18.025   -.0375      .15   18.008  .001404
GW   166    3   -.0375      .15   18.008   -.0375      .15   17.992  .001404
GW   167    3   -.0375      .15   17.992   -.0375      .15   17.975  .001404
GW   168    3  -.01875      .15   18.025  -.01875      .15   18.008  .001404
GW   169    3  -.01875      .15   18.008  -.01875      .15   17.992  .001404
GW   170    3  -.01875      .15   17.992  -.01875      .15   17.975  .001404
GW   171    3       .0      .15   18.025       .0      .15   18.008  .001404
GW   172    3       .0      .15   18.008       .0      .15   17.992  .001404
GW   173    3       .0      .15   17.992       .0      .15   17.975  .001404
GW   174    3   .01875      .15   18.025   .01875      .15   18.008  .001404
GW   175    3   .01875      .15   18.008   .01875      .15   17.992  .001404
GW   176    3   .01875      .15   17.992   .01875      .15   17.975  .001404
GW   177    3    .0375      .15   18.025    .0375      .15   18.008  .001404
GW   178    3    .0375      .15   18.008    .0375      .15   17.992  .001404
GW   179    3    .0375      .15   17.992    .0375      .15   17.975  .001404
GW   180    3   .05625      .15   18.025   .05625      .15   18.008  .001404
GW   181    3   .05625      .15   18.008   .05625      .15   17.992  .001404
GW   182    3   .05625      .15   17.992   .05625      .15   17.975  .001404
GW   183    3     .075      .15   18.025     .075      .15   18.008  .001404
GW   184    3     .075      .15   18.008     .075      .15   17.992  .001404
GW   185    3     .075      .15   17.992     .075      .15   17.975  .001404
GW   186    3    -.075      .15   18.025  -.05625      .15   18.025  .001404
GW   187    3  -.05625      .15   18.025   -.0375      .15   18.025  .001404
GW   188    3   -.0375      .15   18.025  -.01875      .15   18.025  .001404
GW   189    3  -.01875      .15   18.025       .0      .15   18.025  .001404
GW   190    3       .0      .15   18.025   .01875      .15   18.025  .001404
GW   191    3   .01875      .15   18.025    .0375      .15   18.025  .001404
GW   192    3    .0375      .15   18.025   .05625      .15   18.025  .001404
GW   193    3   .05625      .15   18.025     .075      .15   18.025  .001404
GW   194    3    -.075      .15   18.008  -.05625      .15   18.008  .001404
GW   195    3  -.05625      .15   18.008   -.0375      .15   18.008  .001404
GW   196    3   -.0375      .15   18.008  -.01875      .15   18.008  .001404
GW   197    3  -.01875      .15   18.008       .0      .15   18.008  .001404
GW   198    3       .0      .15   18.008   .01875      .15   18.008  .001404
GW   199    3   .01875      .15   18.008    .0375      .15   18.008  .001404
GW   200    3    .0375      .15   18.008   .05625      .15   18.008  .001404
GW   201    3   .05625      .15   18.008     .075      .15   18.008  .001404
GW   202    3    -.075      .15   17.992  -.05625      .15   17.992  .001404
GW   203    3  -.05625      .15   17.992   -.0375      .15   17.992  .001404
GW   204    3   -.0375      .15   17.992  -.01875      .15   17.992  .001404
GW   205    3  -.01875      .15   17.992       .0      .15   17.992  .001404
GW   206    3       .0      .15   17.992   .01875      .15   17.992  .001404
GW   207    3   .01875      .15   17.992    .0375      .15   17.992  .001404
GW   208    3    .0375      .15   17.992   .05625      .15   17.992  .001404
GW   209    3   .05625      .15   17.992     .075      .15   17.992  .001404
GW   210    3    -.075      .15   17.975  -.05625      .15   17.975  .001404
GW   211    3  -.05625      .15   17.975   -.0375      .15   17.975  .001404
GW   212    3   -.0375      .15   17.975  -.01875      .15   17.975  .001404
GW   213    3  -.01875      .15   17.975       .0      .15   17.975  .001404
GW   214    3       .0      .15   17.975   .01875      .15   17.975  .001404
GW   215    3   .01875      .15   17.975    .0375      .15   17.975  .001404
GW   216    3    .0375      .15   17.975   .05625      .15   17.975  .001404
GW   217    3   .05625      .15   17.975     .075      .15   17.975  .001404
GW   218    3    -.075     -.15   18.025    -.075     -.13   18.025  .001447
GW   219    3    -.075     -.13   18.025    -.075     -.11   18.025  .001447
GW   220    3    -.075     -.11   18.025    -.075     -.09   18.025  .001447
GW   221    3    -.075     -.09   18.025    -.075     -.07   18.025  .001447
GW   222    3    -.075     -.07   18.025    -.075     -.05   18.025  .001447
GW   223    3    -.075     -.05   18.025    -.075     -.03   18.025  .001447
GW   224    3    -.075     -.03   18.025    -.075     -.01   18.025  .001447
GW   225    3    -.075     -.01   18.025    -.075      .01   18.025  .001447
GW   226    3    -.075      .01   18.025    -.075      .03   18.025  .001447
GW   227    3    -.075      .03   18.025    -.075      .05   18.025  .001447
GW   228    3    -.075      .05   18.025    -.075      .07   18.025  .001447
GW   229    3    -.075      .07   18.025    -.075      .09   18.025  .001447
GW   230    3    -.075      .09   18.025    -.075      .11   18.025  .001447
GW   231    3    -.075      .11   18.025    -.075      .13   18.025  .001447
GW   232    3    -.075      .13   18.025    -.075      .15   18.025  .001447
GW   233    3    -.075     -.15   18.008    -.075     -.13   18.008  .001447
GW   234    3    -.075     -.13   18.008    -.075     -.11   18.008  .001447
GW   235    3    -.075     -.11   18.008    -.075     -.09   18.008  .001447
GW   236    3    -.075     -.09   18.008    -.075     -.07   18.008  .001447
GW   237    3    -.075     -.07   18.008    -.075     -.05   18.008  .001447
GW   238    3    -.075     -.05   18.008    -.075     -.03   18.008  .001447
GW   239    3    -.075     -.03   18.008    -.075     -.01   18.008  .001447
GW   240    3    -.075     -.01   18.008    -.075      .01   18.008  .001447
GW   241    3    -.075      .01   18.008    -.075      .03   18.008  .001447
GW   242    3    -.075      .03   18.008    -.075      .05   18.008  .001447
GW   243    3    -.075      .05   18.008    -.075      .07   18.008  .001447
GW   244    3    -.075      .07   18.008    -.075      .09   18.008  .001447
GW   245    3    -.075      .09   18.008    -.075      .11   18.008  .001447
GW   246    3    -.075      .11   18.008    -.075      .13   18.008  .001447
GW   247    3    -.075      .13   18.008    -.075      .15   18.008  .001447
GW   248    3    -.075     -.15   17.992    -.075     -.13   17.992  .001447
GW   249    3    -.075     -.13   17.992    -.075     -.11   17.992  .001447
GW   250    3    -.075     -.11   17.992    -.075     -.09   17.992  .001447
GW   251    3    -.075     -.09   17.992    -.075     -.07   17.992  .001447
GW   252    3    -.075     -.07   17.992    -.075     -.05   17.992  .001447
GW   253    3    -.075     -.05   17.992    -.075     -.03   17.992  .001447
GW   254    3    -.075     -.03   17.992    -.075     -.01   17.992  .001447
GW   255    3    -.075     -.01   17.992    -.075      .01   17.992  .001447
GW   256    3    -.075      .01   17.992    -.075      .03   17.992  .001447
GW   257    3    -.075      .03   17.992    -.075      .05   17.992  .001447
GW   258    3    -.075      .05   17.992    -.075      .07   17.992  .001447
GW   259    3    -.075      .07   17.992    -.075      .09   17.992  .001447
GW   260    3    -.075      .09   17.992    -.075      .11   17.992  .001447
GW   261    3    -.075      .11   17.992    -.075      .13   17.992  .001447
GW   262    3    -.075      .13   17.992    -.075      .15   17.992  .001447
GW   263    3    -.075     -.15   17.975    -.075     -.13   17.975  .001447
GW   264    3    -.075     -.13   17.975    -.075     -.11   17.975  .001447
GW   265    3    -.075     -.11   17.975    -.075     -.09   17.975  .001447
GW   266    3    -.075     -.09   17.975    -.075     -.07   17.975  .001447
GW   267    3    -.075     -.07   17.975    -.075     -.05   17.975  .001447
GW   268    3    -.075     -.05   17.975    -.075     -.03   17.975  .001447
GW   269    3    -.075     -.03   17.975    -.075     -.01   17.975  .001447
GW   270    3    -.075     -.01   17.975    -.075      .01   17.975  .001447
GW   271    3    -.075      .01   17.975    -.075      .03   17.975  .001447
GW   272    3    -.075      .03   17.975    -.075      .05   17.975  .001447
GW   273    3    -.075      .05   17.975    -.075      .07   17.975  .001447
GW   274    3    -.075      .07   17.975    -.075      .09   17.975  .001447
GW   275    3    -.075      .09   17.975    -.075      .11   17.975  .001447
GW   276    3    -.075      .11   17.975    -.075      .13   17.975  .001447
GW   277    3    -.075      .13   17.975    -.075      .15   17.975  .001447
GW   278    3    -.075     -.13   18.025    -.075     -.13   18.008  .001447
GW   279    3    -.075     -.13   18.008    -.075     -.13   17.992  .001447
GW   280    3    -.075     -.13   17.992    -.075     -.13   17.975  .001447
GW   281    3    -.075     -.11   18.025    -.075     -.11   18.008  .001447
GW   282    3    -.075     -.11   18.008    -.075     -.11   17.992  .001447
GW   283    3    -.075     -.11   17.992    -.075     -.11   17.975  .001447
GW   284    3    -.075     -.09   18.025    -.075     -.09   18.008  .001447
GW   285    3    -.075     -.09   18.008    -.075     -.09   17.992  .001447
GW   286    3    -.075     -.09   17.992    -.075     -.09   17.975  .001447
GW   287    3    -.075     -.07   18.025    -.075     -.07   18.008  .001447
GW   288    3    -.075     -.07   18.008    -.075     -.07   17.992  .001447
GW   289    3    -.075     -.07   17.992    -.075     -.07   17.975  .001447
GW   290    3    -.075     -.05   18.025    -.075     -.05   18.008  .001447
GW   291    3    -.075     -.05   18.008    -.075     -.05   17.992  .001447
GW   292    3    -.075     -.05   17.992    -.075     -.05   17.975  .001447
GW   293    3    -.075     -.03   18.025    -.075     -.03   18.008  .001447
GW   294    3    -.075     -.03   18.008    -.075     -.03   17.992  .001447
GW   295    3    -.075     -.03   17.992    -.075     -.03   17.975  .001447
GW   296    3    -.075     -.01   18.025    -.075     -.01   18.008  .001447
GW   297    3    -.075     -.01   18.008    -.075     -.01   17.992  .001447
GW   298    3    -.075     -.01   17.992    -.075     -.01   17.975  .001447
GW   299    3    -.075      .01   18.025    -.075      .01   18.008  .001447
GW   300    3    -.075      .01   18.008    -.075      .01   17.992  .001447
GW   301    3    -.075      .01   17.992    -.075      .01   17.975  .001447
GW   302    3    -.075      .03   18.025    -.075      .03   18.008  .001447
GW   303    3    -.075      .03   18.008    -.075      .03   17.992  .001447
GW   304    3    -.075      .03   17.992    -.075      .03   17.975  .001447
GW   305    3    -.075      .05   18.025    -.075      .05   18.008  .001447
GW   306    3    -.075      .05   18.008    -.075      .05   17.992  .001447
GW   307    3    -.075      .05   17.992    -.075      .05   17.975  .001447
GW   308    3    -.075      .07   18.025    -.075      .07   18.008  .001447
GW   309    3    -.075      .07   18.008    -.075      .07   17.992  .001447
GW   310    3    -.075      .07   17.992    -.075      .07   17.975  .001447
GW   311    3    -.075      .09   18.025    -.075      .09   18.008  .001447
GW   312    3    -.075      .09   18.008    -.075      .09   17.992  .001447
GW   313    3    -.075      .09   17.992    -.075      .09   17.975  .001447
GW   314    3    -.075      .11   18.025    -.075      .11   18.008  .001447
GW   315    3    -.075      .11   18.008    -.075      .11   17.992  .001447
GW   316    3    -.075      .11   17.992    -.075      .11   17.975  .001447
GW   317    3    -.075      .13   18.025    -.075      .13   18.008  .001447
GW   318    3    -.075      .13   18.008    -.075      .13   17.992  .001447
GW   319    3    -.075      .13   17.992    -.075      .13   17.975  .001447
GW   320    3     .075     -.15   18.025     .075     -.13   18.025  .001447
GW   321    3     .075     -.13   18.025     .075     -.11   18.025  .001447
GW   322    3     .075     -.11   18.025     .075     -.09   18.025  .001447
GW   323    3     .075     -.09   18.025     .075     -.07   18.025  .001447
GW   324    3     .075     -.07   18.025     .075     -.05   18.025  .001447
GW   325    3     .075     -.05   18.025     .075     -.03   18.025  .001447
GW   326    3     .075     -.03   18.025     .075     -.01   18.025  .001447
GW   327    3     .075     -.01   18.025     .075      .01   18.025  .001447
GW   328    3     .075      .01   18.025     .075      .03   18.025  .001447
GW   329    3     .075      .03   18.025     .075      .05   18.025  .001447
GW   330    3     .075      .05   18.025     .075      .07   18.025  .001447
GW   331    3     .075      .07   18.025     .075      .09   18.025  .001447
GW   332    3     .075      .09   18.025     .075      .11   18.025  .001447
GW   333    3     .075      .11   18.025     .075      .13   18.025  .001447
GW   334    3     .075      .13   18.025     .075      .15   18.025  .001447
GW   335    3     .075     -.15   18.008     .075     -.13   18.008  .001447
GW   336    3     .075     -.13   18.008     .075     -.11   18.008  .001447
GW   337    3     .075     -.11   18.008     .075     -.09   18.008  .001447
GW   338    3     .075     -.09   18.008     .075     -.07   18.008  .001447
GW   339    3     .075     -.07   18.008     .075     -.05   18.008  .001447
GW   340    3     .075     -.05   18.008     .075     -.03   18.008  .001447
GW   341    3     .075     -.03   18.008     .075     -.01   18.008  .001447
GW   342    3     .075     -.01   18.008     .075      .01   18.008  .001447
GW   343    3     .075      .01   18.008     .075      .03   18.008  .001447
GW   344    3     .075      .03   18.008     .075      .05   18.008  .001447
GW   345    3     .075      .05   18.008     .075      .07   18.008  .001447
GW   346    3     .075      .07   18.008     .075      .09   18.008  .001447
GW   347    3     .075      .09   18.008     .075      .11   18.008  .001447
GW   348    3     .075      .11   18.008     .075      .13   18.008  .001447
GW   349    3     .075      .13   18.008     .075      .15   18.008  .001447
GW   350    3     .075     -.15   17.992     .075     -.13   17.992  .001447
GW   351    3     .075     -.13   17.992     .075     -.11   17.992  .001447
GW   352    3     .075     -.11   17.992     .075     -.09   17.992  .001447
GW   353    3     .075     -.09   17.992     .075     -.07   17.992  .001447
GW   354    3     .075     -.07   17.992     .075     -.05   17.992  .001447
GW   355    3     .075     -.05   17.992     .075     -.03   17.992  .001447
GW   356    3     .075     -.03   17.992     .075     -.01   17.992  .001447
GW   357    3     .075     -.01   17.992     .075      .01   17.992  .001447
GW   358    3     .075      .01   17.992     .075      .03   17.992  .001447
GW   359    3     .075      .03   17.992     .075      .05   17.992  .001447
GW   360    3     .075      .05   17.992     .075      .07   17.992  .001447
GW   361    3     .075      .07   17.992     .075      .09   17.992  .001447
GW   362    3     .075      .09   17.992     .075      .11   17.992  .001447
GW   363    3     .075      .11   17.992     .075      .13   17.992  .001447
GW   364    3     .075      .13   17.992     .075      .15   17.992  .001447
GW   365    3     .075     -.15   17.975     .075     -.13   17.975  .001447
GW   366    3     .075     -.13   17.975     .075     -.11   17.975  .001447
GW   367    3     .075     -.11   17.975     .075     -.09   17.975  .001447
GW   368    3     .075     -.09   17.975     .075     -.07   17.975  .001447
GW   369    3     .075     -.07   17.975     .075     -.05   17.975  .001447
GW   370    3     .075     -.05   17.975     .075     -.03   17.975  .001447
GW   371    3     .075     -.03   17.975     .075     -.01   17.975  .001447
GW   372    3     .075     -.01   17.975     .075      .01   17.975  .001447
GW   373    3     .075      .01   17.975     .075      .03   17.975  .001447
GW   374    3     .075      .03   17.975     .075      .05   17.975  .001447
GW   375    3     .075      .05   17.975     .075      .07   17.975  .001447
GW   376    3     .075      .07   17.975     .075      .09   17.975  .001447
GW   377    3     .075      .09   17.975     .075      .11   17.975  .001447
GW   378    3     .075      .11   17.975     .075      .13   17.975  .001447
GW   379    3     .075      .13   17.975     .075      .15   17.975  .001447
GW   380    3     .075     -.13   18.025     .075     -.13   18.008  .001447
GW   381    3     .075     -.13   18.008     .075     -.13   17.992  .001447
GW   382    3     .075     -.13   17.992     .075     -.13   17.975  .001447
GW   383    3     .075     -.11   18.025     .075     -.11   18.008  .001447
GW   384    3     .075     -.11   18.008     .075     -.11   17.992  .001447
GW   385    3     .075     -.11   17.992     .075     -.11   17.975  .001447
GW   386    3     .075     -.09   18.025     .075     -.09   18.008  .001447
GW   387    3     .075     -.09   18.008     .075     -.09   17.992  .001447
GW   388    3     .075     -.09   17.992     .075     -.09   17.975  .001447
GW   389    3     .075     -.07   18.025     .075     -.07   18.008  .001447
GW   390    3     .075     -.07   18.008     .075     -.07   17.992  .001447
GW   391    3     .075     -.07   17.992     .075     -.07   17.975  .001447
GW   392    3     .075     -.05   18.025     .075     -.05   18.008  .001447
GW   393    3     .075     -.05   18.008     .075     -.05   17.992  .001447
GW   394    3     .075     -.05   17.992     .075     -.05   17.975  .001447
GW   395    3     .075     -.03   18.025     .075     -.03   18.008  .001447
GW   396    3     .075     -.03   18.008     .075     -.03   17.992  .001447
GW   397    3     .075     -.03   17.992     .075     -.03   17.975  .001447
GW   398    3     .075     -.01   18.025     .075     -.01   18.008  .001447
GW   399    3     .075     -.01   18.008     .075     -.01   17.992  .001447
GW   400    3     .075     -.01   17.992     .075     -.01   17.975  .001447
GW   401    3     .075      .01   18.025     .075      .01   18.008  .001447
GW   402    3     .075      .01   18.008     .075      .01   17.992  .001447
GW   403    3     .075      .01   17.992     .075      .01   17.975  .001447
GW   404    3     .075      .03   18.025     .075      .03   18.008  .001447
GW   405    3     .075      .03   18.008     .075      .03   17.992  .001447
GW   406    3     .075      .03   17.992     .075      .03   17.975  .001447
GW   407    3     .075      .05   18.025     .075      .05   18.008  .001447
GW   408    3     .075      .05   18.008     .075      .05   17.992  .001447
GW   409    3     .075      .05   17.992     .075      .05   17.975  .001447
GW   410    3     .075      .07   18.025     .075      .07   18.008  .001447
GW   411    3     .075      .07   18.008     .075      .07   17.992  .001447
GW   412    3     .075      .07   17.992     .075      .07   17.975  .001447
GW   413    3     .075      .09   18.025     .075      .09   18.008  .001447
GW   414    3     .075      .09   18.008     .075      .09   17.992  .001447
GW   415    3     .075      .09   17.992     .075      .09   17.975  .001447
GW   416    3     .075      .11   18.025     .075      .11   18.008  .001447
GW   417    3     .075      .11   18.008     .075      .11   17.992  .001447
GW   418    3     .075      .11   17.992     .075      .11   17.975  .001447
GW   419    3     .075      .13   18.025     .075      .13   18.008  .001447
GW   420    3     .075      .13   18.008     .075      .13   17.992  .001447
GW   421    3     .075      .13   17.992     .075      .13   17.975  .001447
GW   422    3  -.05625     -.15   17.975  -.05625     -.13   17.975   .00154
GW   423    3  -.05625     -.13   17.975  -.05625     -.11   17.975   .00154
GW   424    3  -.05625     -.11   17.975  -.05625     -.09   17.975   .00154
GW   425    3  -.05625     -.09   17.975  -.05625     -.07   17.975   .00154
GW   426    3  -.05625     -.07   17.975  -.05625     -.05   17.975   .00154
GW   427    3  -.05625     -.05   17.975  -.05625     -.03   17.975   .00154
GW   428    3  -.05625     -.03   17.975  -.05625     -.01   17.975   .00154
GW   429    3  -.05625     -.01   17.975  -.05625      .01   17.975   .00154
GW   430    3  -.05625      .01   17.975  -.05625      .03   17.975   .00154
GW   431    3  -.05625      .03   17.975  -.05625      .05   17.975   .00154
GW   432    3  -.05625      .05   17.975  -.05625      .07   17.975   .00154
GW   433    3  -.05625      .07   17.975  -.05625      .09   17.975   .00154
GW   434    3  -.05625      .09   17.975  -.05625      .11   17.975   .00154
GW   435    3  -.05625      .11   17.975  -.05625      .13   17.975   .00154
GW   436    3  -.05625      .13   17.975  -.05625      .15   17.975   .00154
GW   437    3   -.0375     -.15   17.975   -.0375     -.13   17.975   .00154
GW   438    3   -.0375     -.13   17.975   -.0375     -.11   17.975   .00154
GW   439    3   -.0375     -.11   17.975   -.0375     -.09   17.975   .00154
GW   440    3   -.0375     -.09   17.975   -.0375     -.07   17.975   .00154
GW   441    3   -.0375     -.07   17.975   -.0375     -.05   17.975   .00154
GW   442    3   -.0375     -.05   17.975   -.0375     -.03   17.975   .00154
GW   443    3   -.0375     -.03   17.975   -.0375     -.01   17.975   .00154
GW   444    3   -.0375     -.01   17.975   -.0375      .01   17.975   .00154
GW   445    3   -.0375      .01   17.975   -.0375      .03   17.975   .00154
GW   446    3   -.0375      .03   17.975   -.0375      .05   17.975   .00154
GW   447    3   -.0375      .05   17.975   -.0375      .07   17.975   .00154
GW   448    3   -.0375      .07   17.975   -.0375      .09   17.975   .00154
GW   449    3   -.0375      .09   17.975   -.0375      .11   17.975   .00154
GW   450    3   -.0375      .11   17.975   -.0375      .13   17.975   .00154
GW   451    3   -.0375      .13   17.975   -.0375      .15   17.975   .00154
GW   452    3  -.01875     -.15   17.975  -.01875     -.13   17.975   .00154
GW   453    3  -.01875     -.13   17.975  -.01875     -.11   17.975   .00154
GW   454    3  -.01875     -.11   17.975  -.01875     -.09   17.975   .00154
GW   455    3  -.01875     -.09   17.975  -.01875     -.07   17.975   .00154
GW   456    3  -.01875     -.07   17.975  -.01875     -.05   17.975   .00154
GW   457    3  -.01875     -.05   17.975  -.01875     -.03   17.975   .00154
GW   458    3  -.01875     -.03   17.975  -.01875     -.01   17.975   .00154
GW   459    3  -.01875     -.01   17.975  -.01875      .01   17.975   .00154
GW   460    3  -.01875      .01   17.975  -.01875      .03   17.975   .00154
GW   461    3  -.01875      .03   17.975  -.01875      .05   17.975   .00154
GW   462    3  -.01875      .05   17.975  -.01875      .07   17.975   .00154
GW   463    3  -.01875      .07   17.975  -.01875      .09   17.975   .00154
GW   464    3  -.01875      .09   17.975  -.01875      .11   17.975   .00154
GW   465    3  -.01875      .11   17.975  -.01875      .13   17.975   .00154
GW   466    3  -.01875      .13   17.975  -.01875      .15   17.975   .00154
GW   467    3       .0     -.15   17.975       .0     -.13   17.975   .00154
GW   468    3       .0     -.13   17.975       .0     -.11   17.975   .00154
GW   469    3       .0     -.11   17.975       .0     -.09   17.975   .00154
GW   470    3       .0     -.09   17.975       .0     -.07   17.975   .00154
GW   471    3       .0     -.07   17.975       .0     -.05   17.975   .00154
GW   472    3       .0     -.05   17.975       .0     -.03   17.975   .00154
GW   473    3       .0     -.03   17.975       .0     -.01   17.975   .00154
GW   474    3       .0     -.01   17.975       .0      .01   17.975   .00154
GW   475    3       .0      .01   17.975       .0      .03   17.975   .00154
GW   476    3       .0      .03   17.975       .0      .05   17.975   .00154
GW   477    3       .0      .05   17.975       .0      .07   17.975   .00154
GW   478    3       .0      .07   17.975       .0      .09   17.975   .00154
GW   479    3       .0      .09   17.975       .0      .11   17.975   .00154
GW   480    3       .0      .11   17.975       .0      .13   17.975   .00154