CM Length X1 = .15
CM Length X2 = .15
CM Length Y = .3
CM Length Z1 = .05
CM Length Z2 = .05
CM X sections = 30
CM Y sections = 30
CM Z sections = 30
CM Rotate X, Y, Z = 0, 0, 0
CM Move X, Y, Z = 0, 0, 0
CE
GW   100    1    -.075     -.15   18.025    -.075     -.15   18.023  .000199
GW   101    1    -.075     -.15   18.023    -.075     -.15   18.022  .000199
GW   102    1    -.075     -.15   18.022    -.075     -.15    18.02  .000199
GW   103    1    -.075     -.15    18.02    -.075     -.15   18.018  .000199
GW   104    1    -.075     -.15   18.018    -.075     -.15   18.017  .000199
GW   105    1    -.075     -.15   18.017    -.075     -.15   18.015  .000199
GW   106    1    -.075     -.15   18.015    -.075     -.15   18.013  .000199
GW   107    1    -.075     -.15   18.013    -.075     -.15   18.012  .000199
GW   108    1    -.075     -.15   18.012    -.075     -.15    18.01  .000199
GW   109    1    -.075     -.15    18.01    -.075     -.15   18.008  .000199
GW   110    1    -.075     -.15   18.008    -.075     -.15   18.007  .000199
GW   111    1    -.075     -.15   18.007    -.075     -.15   18.005  .000199
GW   112    1    -.075     -.15   18.005    -.075     -.15   18.003  .000199
GW   113    1    -.075     -.15   18.003    -.075     -.15   18.002  .000199
GW   114    1    -.075     -.15   18.002    -.075     -.15     18.0  .000199
GW   115    1    -.075     -.15     18.0    -.075     -.15   17.998  .000199
GW   116    1    -.075     -.15   17.998    -.075     -.15   17.997  .000199
GW   117    1    -.075     -.15   17.997    -.075     -.15   17.995  .000199
GW   118    1    -.075     -.15   17.995    -.075     -.15   17.993  .000199
GW   119    1    -.075     -.15   17.993    -.075     -.15   17.992  .000199
GW   120    1    -.075     -.15   17.992    -.075     -.15    17.99  .000199
GW   121    1    -.075     -.15    17.99    -.075     -.15   17.988  .000199
GW   122    1    -.075     -.15   17.988    -.075     -.15   17.987  .000199
GW   123    1    -.075     -.15   17.987    -.075     -.15   17.985  .000199
GW   124    1    -.075     -.15   17.985    -.075     -.15   17.983  .000199
GW   125    1    -.075     -.15   17.983    -.075     -.15   17.982  .000199
GW   126    1    -.075     -.15   17.982    -.075     -.15    17.98  .000199
GW   127    1    -.075     -.15    17.98    -.075     -.15   17.978  .000199
GW   128    1    -.075     -.15   17.978    -.075     -.15   17.977  .000199
GW   129    1    -.075     -.15   17.977    -.075     -.15   17.975  .000199
GW   130    1     -.07     -.15   18.025     -.07     -.15   18.023  .000199
GW   131    1     -.07     -.15   18.023     -.07     -.15   18.022  .000199
GW   132    1     -.07     -.15   18.022     -.07     -.15    18.02  .000199
GW   133    1     -.07     -.15    18.02     -.07     -.15   18.018  .000199
GW   134    1     -.07     -.15   18.018     -.07     -.15   18.017  .000199
GW   135    1     -.07     -.15   18.017     -.07     -.15   18.015  .000199
GW   136    1     -.07     -.15   18.015     -.07     -.15   18.013  .000199
GW   137    1     -.07     -.15   18.013     -.07     -.15   18.012  .000199
GW   138    1     -.07     -.15   18.012     -.07     -.15    18.01  .000199
GW   139    1     -.07     -.15    18.01     -.07     -.15   18.008  .000199
GW   140    1     -.07     -.15   18.008     -.07     -.15   18.007  .000199
GW   141    1     -.07     -.15   18.007     -.07     -.15   18.005  .000199
GW   142    1     -.07     -.15   18.005     -.07     -.15   18.003  .000199
GW   143    1     -.07     -.15   18.003     -.07     -.15   18.002  .000199
GW   144    1     -.07     -.15   18.002     -.07     -.15     18.0  .000199
GW   145    1     -.07     -.15     18.0     -.07     -.15   17.998  .000199
GW   146    1     -.07     -.15   17.998     -.07     -.15   17.997  .000199
GW   147    1     -.07     -.15   17.997     -.07     -.15   17.995  .000199
GW   148    1     -.07     -.15   17.995     -.07     -.15   17.993  .000199
GW   149    1     -.07     -.15   17.993     -.07     -.15   17.992  .000199
GW   150    1     -.07     -.15   17.992     -.07     -.15    17.99  .000199
GW   151    1     -.07     -.15    17.99     -.07     -.15   17.988  .000199
GW   152    1     -.07     -.15   17.988     -.07     -.15   17.987  .000199
GW   153    1     -.07     -.15   17.987     -.07     -.15   17.985  .000199
GW   154    1     -.07     -.15   17.985     -.07     -.15   17.983  .000199
GW   155    1     -.07     -.15   17.983     -.07     -.15   17.982  .000199
GW   156    1     -.07     -.15   17.982     -.07     -.15    17.98  .000199
GW   157    1     -.07     -.15    17.98     -.07     -.15   17.978  .000199
GW   158    1     -.07     -.15   17.978     -.07     -.15   17.977  .000199
GW   159    1     -.07     -.15   17.977     -.07     -.15   17.975  .000199
GW   160    1    -.065     -.15   18.025    -.065     -.15   18.023  .000199
GW   161    1    -.065     -.15   18.023    -.065     -.15   18.022  .000199
GW   162    1    -.065     -.15   18.022    -.065     -.15    18.02  .000199
GW   163    1    -.065     -.15    18.02    -.065     -.15   18.018  .000199
GW   164    1    -.065     -.15   18.018    -.065     -.15   18.017  .000199
GW   165    1    -.065     -.15   18.017    -.065     -.15   18.015  .000199
GW   166    1    -.065     -.15   18.015    -.065     -.15   18.013  .000199
GW   167    1    -.065     -.15   18.013    -.065     -.15   18.012  .000199
GW   168    1    -.065     -.15   18.012    -.065     -.15    18.01  .000199
GW   169    1    -.065     -.15    18.01    -.065     -.15   18.008  .000199
GW   170    1    -.065     -.15   18.008    -.065     -.15   18.007  .000199
GW   171    1    -.065     -.15   18.007    -.065     -.15   18.005  .000199
GW   172    1    -.065     -.15   18.005    -.065     -.15   18.003  .000199
GW   173    1    -.065     -.15   18.003    -.065     -.15   18.002  .000199
GW   174    1    -.065     -.15   18.002    -.065     -.15     18.0  .000199
GW   175    1    -.065     -.15     18.0    -.065     -.15   17.998  .000199
GW   176    1    -.065     -.15   17.998    -.065     -.15   17.997  .000199
GW   177    1    -.065     -.15   17.997    -.065     -.15   17.995  .000199
GW   178    1    -.065     -.15   17.995    -.065     -.15   17.993  .000199
GW   179    1    -.065     -.15   17.993    -.065     -.15   17.992  .000199
GW   180    1    -.065     -.15   17.992    -.065     -.15    17.99  .000199
GW   181    1    -.065     -.15    17.99    -.065     -.15   17.988  .000199
GW   182    1    -.065     -.15   17.988    -.065     -.15   17.987  .000199
GW   183    1    -.065     -.15   17.987    -.065     -.15   17.985  .000199
GW   184    1    -.065     -.15   17.985    -.065     -.15   17.983  .000199
GW   185    1    -.065     -.15   17.983    -.065     -.15   17.982  .000199
GW   186    1    -.065     -.15   17.982    -.065     -.15    17.98  .000199
GW   187    1    -.065     -.15    17.98    -.065     -.15   17.978  .000199
GW   188    1    -.065     -.15   17.978    -.065     -.15   17.977  .000199
GW   189    1    -.065     -.15   17.977    -.065     -.15   17.975  .000199
GW   190    1     -.06     -.15   18.025     -.06     -.15   18.023  .000199
GW   191    1     -.06     -.15   18.023     -.06     -.15   18.022  .000199
GW   192    1     -.06     -.15   18.022     -.06     -.15    18.02  .000199
GW   193    1     -.06     -.15    18.02     -.06     -.15   18.018  .000199
GW   194    1     -.06     -.15   18.018     -.06     -.15   18.017  .000199
GW   195    1     -.06     -.15   18.017     -.06     -.15   18.015  .000199
GW   196    1     -.06     -.15   18.015     -.06     -.15   18.013  .000199
GW   197    1     -.06     -.15   18.013     -.06     -.15   18.012  .000199
GW   198    1     -.06     -.15   18.012     -.06     -.15    18.01  .000199
GW   199    1     -.06     -.15    18.01     -.06     -.15   18.008  .000199
GW   200    1     -.06     -.15   18.008     -.06     -.15   18.007  .000199
GW   201    1     -.06     -.15   18.007     -.06     -.15   18.005  .000199
GW   202    1     -.06     -.15   18.005     -.06     -.15   18.003  .000199
GW   203    1     -.06     -.15   18.003     -.06     -.15   18.002  .000199
GW   204    1     -.06     -.15   18.002     -.06     -.15     18.0  .000199
GW   205    1     -.06     -.15     18.0     -.06     -.15   17.998  .000199
GW   206    1     -.06     -.15   17.998     -.06     -.15   17.997  .000199
GW   207    1     -.06     -.15   17.997     -.06     -.15   17.995  .000199
GW   208    1     -.06     -.15   17.995     -.06     -.15   17.993  .000199
GW   209    1     -.06     -.15   17.993     -.06     -.15   17.992  .000199
GW   210    1     -.06     -.15   17.992     -.06     -.15    17.99  .000199
GW   211    1     -.06     -.15    17.99     -.06     -.15   17.988  .000199
GW   212    1     -.06     -.15   17.988     -.06     -.15   17.987  .000199
GW   213    1     -.06     -.15   17.987     -.06     -.15   17.985  .000199
GW   214    1     -.06     -.15   17.985     -.06     -.15   17.983  .000199
GW   215    1     -.06     -.15   17.983     -.06     -.15   17.982  .000199
GW   216    1     -.06     -.15   17.982     -.06     -.15    17.98  .000199
GW   217    1     -.06     -.15    17.98     -.06     -.15   17.978  .000199
GW   218    1     -.06     -.15   17.978     -.06     -.15   17.977  .000199
GW   219    1     -.06     -.15   17.977     -.06     -.15   17.975  .000199
GW   220    1    -.055     -.15   18.025    -.055     -.15   18.023  .000199
GW   221    1    -.055     -.15   18.023    -.055     -.15   18.022  .000199
GW   222    1    -.055     -.15   18.022    -.055     -.15    18.02  .000199
GW   223    1    -.055     -.15    18.02    -.055     -.15   18.018  .000199
GW   224    1    -.055     -.15   18.018    -.055     -.15   18.017  .000199
GW   225    1    -.055     -.15   18.017    -.055     -.15   18.015  .000199
GW   226    1    -.055     -.15   18.015    -.055     -.15   18.013  .000199
GW   227    1    -.055     -.15   18.013    -.055     -.15   18.012  .000199
GW   228    1    -.055     -.15   18.012    -.055     -.15    18.01  .000199
GW   229    1    -.055     -.15    18.01    -.055     -.15   18.008  .000199
GW   230    1    -.055     -.15   18.008    -.055     -.15   18.007  .000199
GW   231    1    -.055     -.15   18.007    -.055     -.15   18.005  .000199
GW   232    1    -.055     -.15   18.005    -.055     -.15   18.003  .000199
GW   233    1    -.055     -.15   18.003    -.055     -.15   18.002  .000199
GW   234    1    -.055     -.15   18.002    -.055     -.15     18.0  .000199
GW   235    1    -.055     -.15     18.0    -.055     -.15   17.998  .000199
GW   236    1    -.055     -.15   17.998    -.055     -.15   17.997  .000199
GW   237    1    -.055     -.15   17.997    -.055     -.15   17.995  .000199
GW   238    1    -.055     -.15   17.995    -.055     -.15   17.993  .000199
GW   239    1    -.055     -.15   17.993    -.055     -.15   17.992  .000199
GW   240    1    -.055     -.15   17.992    -.055     -.15    17.99  .000199
GW   241    1    -.055     -.15    17.99    -.055     -.15   17.988  .000199
GW   242    1    -.055     -.15   17.988    -.055     -.15   17.987  .000199
GW   243    1    -.055     -.15   17.987    -.055     -.15   17.985  .000199
GW   244    1    -.055     -.15   17.985    -.055     -.15   17.983  .000199
GW   245    1    -.055     -.15   17.983    -.055     -.15   17.982  .000199
GW   246    1    -.055     -.15   17.982    -.055     -.15    17.98  .000199
GW   247    1    -.055     -.15    17.98    -.055     -.15   17.978  .000199
GW   248    1    -.055     -.15   17.978    -.055     -.15   17.977  .000199
GW   249    1    -.055     -.15   17.977    -.055     -.15   17.975  .000199
GW   250    1     -.05     -.15   18.025     -.05     -.15   18.023  .000199
GW   251    1     -.05     -.15   18.023     -.05     -.15   18.022  .000199
GW   252    1     -.05     -.15   18.022     -.05     -.15    18.02  .000199
GW   253    1     -.05     -.15    18.02     -.05     -.15   18.018  .000199
GW   254    1     -.05     -.15   18.018     -.05     -.15   18.017  .000199
GW   255    1     -.05     -.15   18.017     -.05     -.15   18.015  .000199
GW   256    1     -.05     -.15   18.015     -.05     -.15   18.013  .000199
GW   257    1     -.05     -.15   18.013     -.05     -.15   18.012  .000199
GW   258    1     -.05     -.15   18.012     -.05     -.15    18.01  .000199
GW   259    1     -.05     -.15    18.01     -.05     -.15   18.008  .000199
GW   260    1     -.05     -.15   18.008     -.05     -.15   18.007  .000199
GW   261    1     -.05     -.15   18.007     -.05     -.15   18.005  .000199
GW   262    1     -.05     -.15   18.005     -.05     -.15   18.003  .000199
GW   263    1     -.05     -.15   18.003     -.05     -.15   18.002  .000199
GW   264    1     -.05     -.15   18.002     -.05     -.15     18.0  .000199
GW   265    1     -.05     -.15     18.0     -.05     -.15   17.998  .000199
GW   266    1     -.05     -.15   17.998     -.05     -.15   17.997  .000199
GW   267    1     -.05     -.15   17.997     -.05     -.15   17.995  .000199
GW   268    1     -.05     -.15   17.995     -.05     -.15   17.993  .000199
GW   269    1     -.05     -.15   17.993     -.05     -.15   17.992  .000199
GW   270    1     -.05     -.15   17.992     -.05     -.15    17.99  .000199
GW   271    1     -.05     -.15    17.99     -.05     -.15   17.988  .000199
GW   272    1     -.05     -.15   17.988     -.05     -.15   17.987  .000199
GW   273    1     -.05     -.15   17.987     -.05     -.15   17.985  .000199
GW   274    1     -.05     -.15   17.985     -.05     -.15   17.983  .000199
GW   275    1     -.05     -.15   17.983     -.05     -.15   17.982  .000199
GW   276    1     -.05     -.15   17.982     -.05     -.15    17.98  .000199
GW   277    1     -.05     -.15    17.98     -.05     -.15   17.978  .000199
GW   278    1     -.05     -.15   17.978     -.05     -.15   17.977  .000199
GW   279    1     -.05     -.15   17.977     -.05     -.15   17.975  .000199
GW   280    1    -.045     -.15   18.025    -.045     -.15   18.023  .000199
GW   281    1    -.045     -.15   18.023    -.045     -.15   18.022  .000199
GW   282    1    -.045     -.15   18.022    -.045     -.15    18.02  .000199
GW   283    1    -.045     -.15    18.02    -.045     -.15   18.018  .000199
GW   284    1    -.045     -.15   18.018    -.045     -.15   18.017  .000199
GW   285    1    -.045     -.15   18.017    -.045     -.15   18.015  .000199
GW   286    1    -.045     -.15   18.015    -.045     -.15   18.013  .000199
GW   287    1    -.045     -.15   18.013    -.045     -.15   18.012  .000199
GW   288    1    -.045     -.15   18.012    -.045     -.15    18.01  .000199
GW   289    1    -.045     -.15    18.01    -.045     -.15   18.008  .000199
GW   290    1    -.045     -.15   18.008    -.045     -.15   18.007  .000199
GW   291    1    -.045     -.15   18.007    -.045     -.15   18.005  .000199
GW   292    1    -.045     -.15   18.005    -.045     -.15   18.003  .000199
GW   293    1    -.045     -.15   18.003    -.045     -.15   18.002  .000199
GW   294    1    -.045     -.15   18.002    -.045     -.15     18.0  .000199
GW   295    1    -.045     -.15     18.0    -.045     -.15   17.998  .000199
GW   296    1    -.045     -.15   17.998    -.045     -.15   17.997  .000199
GW   297    1    -.045     -.15   17.997    -.045     -.15   17.995  .000199
GW   298    1    -.045     -.15   17.995    -.045     -.15   17.993  .000199
GW   299    1    -.045     -.15   17.993    -.045     -.15   17.992  .000199
GW   300    1    -.045     -.15   17.992    -.045     -.15    17.99  .000199
GW   301    1    -.045     -.15    17.99    -.045     -.15   17.988  .000199
GW   302    1    -.045     -.15   17.988    -.045     -.15   17.987  .000199
GW   303    1    -.045     -.15   17.987    -.045     -.15   17.985  .000199
GW   304    1    -.045     -.15   17.985    -.045     -.15   17.983  .000199
GW   305    1    -.045     -.15   17.983    -.045     -.15   17.982  .000199
GW   306    1    -.045     -.15   17.982    -.045     -.15    17.98  .000199
GW   307    1    -.045     -.15    17.98    -.045     -.15   17.978  .000199
GW   308    1    -.045     -.15   17.978    -.045     -.15   17.977  .000199
GW   309    1    -.045     -.15   17.977    -.045     -.15   17.975  .000199
GW   310    1     -.04     -.15   18.025     -.04     -.15   18.023  .000199
GW   311    1     -.04     -.15   18.023     -.04     -.15   18.022  .000199
GW   312    1     -.04     -.15   18.022     -.04     -.15    18.02  .000199
GW   313    1     -.04     -.15    18.02     -.04     -.15   18.018  .000199
GW   314    1     -.04     -.15   18.018     -.04     -.15   18.017  .000199
GW   315    1     -.04     -.15   18.017     -.04     -.15   18.015  .000199
GW   316    1     -.04     -.15   18.015     -.04     -.15   18.013  .000199
GW   317    1     -.04     -.15   18.013     -.04     -.15   18.012  .000199
GW   318    1     -.04     -.15   18.012     -.04     -.15    18.01  .000199
GW   319    1     -.04     -.15    18.01     -.04     -.15   18.008  .000199
GW   320    1     -.04     -.15   18.008     -.04     -.15   18.007  .000199
GW   321    1     -.04     -.15   18.007     -.04     -.15   18.005  .000199
GW   322    1     -.04     -.15   18.005     -.04     -.15   18.003  .000199
GW   323    1     -.04     -.15   18.003     -.04     -.15   18.002  .000199
GW   324    1     -.04     -.15   18.002     -.04     -.15     18.0  .000199
GW   325    1     -.04     -.15     18.0     -.04     -.15   17.998  .000199
GW   326    1     -.04     -.15   17.998     -.04     -.15   17.997  .000199
GW   327    1     -.04     -.15   17.997     -.04     -.15   17.995  .000199
GW   328    1     -.04     -.15   17.995     -.04     -.15   17.993  .000199
GW   329    1     -.04     -.15   17.993     -.04     -.15   17.992  .000199
GW   330    1     -.04     -.15   17.992     -.04     -.15    17.99  .000199
GW   331    1     -.04     -.15    17.99     -.04     -.15   17.988  .000199
GW   332    1     -.04     -.15   17.988     -.04     -.15   17.987  .000199
GW   333    1     -.04     -.15   17.987     -.04     -.15   17.985  .000199
GW   334    1     -.04     -.15   17.985     -.04     -.15   17.983  .000199
GW   335    1     -.04     -.15   17.983     -.04     -.15   17.982  .000199
GW   336    1     -.04     -.15   17.982     -.04     -.15    17.98  .000199
GW   337    1     -.04     -.15    17.98     -.04     -.15   17.978  .000199
GW   338    1     -.04     -.15   17.978     -.04     -.15   17.977  .000199
GW   339    1     -.04     -.15   17.977     -.04     -.15   17.975  .000199
GW   340    1    -.035     -.15   18.025    -.035     -.15   18.023  .000199
GW   341    1    -.035     -.15   18.023    -.035     -.15   18.022  .000199
GW   342    1    -.035     -.15   18.022    -.035     -.15    18.02  .000199
GW   343    1    -.035     -.15    18.02    -.035     -.15   18.018  .000199
GW   344    1    -.035     -.15   18.018    -.035     -.15   18.017  .000199
GW   345    1    -.035     -.15   18.017    -.035     -.15   18.015  .000199
GW   346    1    -.035     -.15   18.015    -.035     -.15   18.013  .000199
GW   347    1    -.035     -.15   18.013    -.035     -.15   18.012  .000199
GW   348    1    -.035     -.15   18.012    -.035     -.15    18.01  .000199
GW   349    1    -.035     -.15    18.01    -.035     -.15   18.008  .000199
GW   350    1    -.035     -.15   18.008    -.035     -.15   18.007  .000199
GW   351    1    -.035     -.15   18.007    -.035     -.15   18.005  .000199
GW   352    1    -.035     -.15   18.005    -.035     -.15   18.003  .000199
GW   353    1    -.035     -.15   18.003    -.035     -.15   18.002  .000199
GW   354    1    -.035     -.15   18.002    -.035     -.15     18.0  .000199
GW   355    1    -.035     -.15     18.0    -.035     -.15   17.998  .000199
GW   356    1    -.035     -.15   17.998    -.035     -.15   17.997  .000199
GW   357    1    -.035     -.15   17.997    -.035     -.15   17.995  .000199
GW   358    1    -.035     -.15   17.995    -.035     -.15   17.993  .000199
GW   359    1    -.035     -.15   17.993    -.035     -.15   17.992  .000199
GW   360    1    -.035     -.15   17.992    -.035     -.15    17.99  .000199
GW   361    1    -.035     -.15    17.99    -.035     -.15   17.988  .000199
GW   362    1    -.035     -.15   17.988    -.035     -.15   17.987  .000199
GW   363    1    -.035     -.15   17.987    -.035     -.15   17.985  .000199
GW   364    1    -.035     -.15   17.985    -.035     -.15   17.983  .000199
GW   365    1    -.035     -.15   17.983    -.035     -.15   17.982  .000199
GW   366    1    -.035     -.15   17.982    -.035     -.15    17.98  .000199
GW   367    1    -.035     -.15    17.98    -.035     -.15   17.978  .000199
GW   368    1    -.035     -.15   17.978    -.035     -.15   17.977  .000199
GW   369    1    -.035     -.15   17.977    -.035     -.15   17.975  .000199
GW   370    1     -.03     -.15   18.025     -.03     -.15   18.023  .000199
GW   371    1     -.03     -.15   18.023     -.03     -.15   18.022  .000199
GW   372    1     -.03     -.15   18.022     -.03     -.15    18.02  .000199
GW   373    1     -.03     -.15    18.02     -.03     -.15   18.018  .000199
GW   374    1     -.03     -.15   18.018     -.03     -.15   18.017  .000199
GW   375    1     -.03     -.15   18.017     -.03     -.15   18.015  .000199
GW   376    1     -.03     -.15   18.015     -.03     -.15   18.013  .000199
GW   377    1     -.03     -.15   18.013     -.03     -.15   18.012  .000199
GW   378    1     -.03     -.15   18.012     -.03     -.15    18.01  .000199
GW   379    1     -.03     -.15    18.01     -.03     -.15   18.008  .000199
GW   380    1     -.03     -.15   18.008     -.03     -.15   18.007  .000199
GW   381    1     -.03     -.15   18.007     -.03     -.15   18.005  .000199
GW   382    1     -.03     -.15   18.005     -.03     -.15   18.003  .000199
GW   383    1     -.03     -.15   18.003     -.03     -.15   18.002  .000199
GW   384    1     -.03     -.15   18.002     -.03     -.15     18.0  .000199
GW   385    1     -.03     -.15     18.0     -.03     -.15   17.998  .000199
GW   386    1     -.03     -.15   17.998     -.03     -.15   17.997  .000199
GW   387    1     -.03     -.15   17.997     -.03     -.15   17.995  .000199
GW   388    1     -.03     -.15   17.995     -.03     -.15   17.993  .000199
GW   389    1     -.03     -.15   17.993     -.03     -.15   17.992  .000199
GW   390    1     -.03     -.15   17.992     -.03     -.15    17.99  .000199
GW   391    1     -.03     -.15    17.99     -.03     -.15   17.988  .000199
GW   392    1     -.03     -.15   17.988     -.03     -.15   17.987  .000199
GW   393    1     -.03     -.15   17.987     -.03     -.15   17.985  .000199
GW   394    1     -.03     -.15   17.985     -.03     -.15   17.983  .000199
GW   395    1     -.03     -.15   17.983     -.03     -.15   17.982  .000199
GW   396    1     -.03     -.15   17.982     -.03     -.15    17.98  .000199
GW   397    1     -.03     -.15    17.98     -.03     -.15   17.978  .000199
GW   398    1     -.03     -.15   17.978     -.03     -.15   17.977  .000199
GW   399    1     -.03     -.15   17.977     -.03     -.15   17.975  .000199
GW   400    1    -.025     -.15   18.025    -.025     -.15   18.023  .000199
GW   401    1    -.025     -.15   18.023    -.025     -.15   18.022  .000199
GW   402    1    -.025     -.15   18.022    -.025     -.15    18.02  .000199
GW   403    1    -.025     -.15    18.02    -.025     -.15   18.018  .000199
GW   404    1    -.025     -.15   18.018    -.025     -.15   18.017  .000199
GW   405    1    -.025     -.15   18.017    -.025     -.15   18.015  .000199
GW   406    1    -.025     -.15   18.015    -.025     -.15   18.013  .000199
GW   407    1    -.025     -.15   18.013    -.025     -.15   18.012  .000199
GW   408    1    -.025     -.15   18.012    -.025     -.15    18.01  .000199
GW   409    1    -.025     -.15    18.01    -.025     -.15   18.008  .000199
GW   410    1    -.025     -.15   18.008    -.025     -.15   18.007  .000199
GW   411    1    -.025     -.15   18.007    -.025     -.15   18.005  .000199
GW   412    1    -.025     -.15   18.005    -.025     -.15   18.003  .000199
GW   413    1    -.025     -.15   18.003    -.025     -.15   18.002  .000199
GW   414    1    -.025     -.15   18.002    -.025     -.15     18.0  .000199
GW   415    1    -.025     -.15     18.0    -.025     -.15   17.998  .000199
GW   416    1    -.025     -.15   17.998    -.025     -.15   17.997  .000199
GW   417    1    -.025     -.15   17.997    -.025     -.15   17.995  .000199
GW   418    1    -.025     -.15   17.995    -.025     -.15   17.993  .000199
GW   419    1    -.025     -.15   17.993    -.025     -.15   17.992  .000199
GW   420    1    -.025     -.15   17.992    -.025     -.15    17.99  .000199
GW   421    1    -.025     -.15    17.99    -.025     -.15   17.988  .000199
GW   422    1    -.025     -.15   17.988    -.025     -.15   17.987  .000199
GW   423    1    -.025     -.15   17.987    -.025     -.15   17.985  .000199
GW   424    1    -.025     -.15   17.985    -.025     -.15   17.983  .000199
GW   425    1    -.025     -.15   17.983    -.025     -.15   17.982  .000199
GW   426    1    -.025     -.15   17.982    -.025     -.15    17.98  .000199
GW   427    1    -.025     -.15    17.98    -.025     -.15   17.978  .000199
GW   428    1    -.025     -.15   17.978    -.025     -.15   17.977  .000199
GW   429    1    -.025     -.15   17.977    -.025     -.15   17.975  .000199
GW   430    1     -.02     -.15   18.025     -.02     -.15   18.023  .000199
GW   431    1     -.02     -.15   18.023     -.02     -.15   18.022  .000199
GW   432    1     -.02     -.15   18.022     -.02     -.15    18.02  .000199
GW   433    1     -.02     -.15    18.02     -.02     -.15   18.018  .000199
GW   434    1     -.02     -.15   18.018     -.02     -.15   18.017  .000199
GW   435    1     -.02     -.15   18.017     -.02     -.15   18.015  .000199
GW   436    1     -.02     -.15   18.015     -.02     -.15   18.013  .000199
GW   437    1     -.02     -.15   18.013     -.02     -.15   18.012  .000199
GW   438    1     -.02     -.15   18.012     -.02     -.15    18.01  .000199
GW   439    1     -.02     -.15    18.01     -.02     -.15   18.008  .000199
GW   440    1     -.02     -.15   18.008     -.02     -.15   18.007  .000199
GW   441    1     -.02     -.15   18.007     -.02     -.15   18.005  .000199
GW   442    1     -.02     -.15   18.005     -.02     -.15   18.003  .000199
GW   443    1     -.02     -.15   18.003     -.02     -.15   18.002  .000199
GW   444    1     -.02     -.15   18.002     -.02     -.15     18.0  .000199
GW   445    1     -.02     -.15     18.0     -.02     -.15   17.998  .000199
GW   446    1     -.02     -.15   17.998     -.02     -.15   17.997  .000199
GW   447    1     -.02     -.15   17.997     -.02     -.15   17.995  .000199
GW   448    1     -.02     -.15   17.995     -.02     -.15   17.993  .000199
GW   449    1     -.02     -.15   17.993     -.02     -.15   17.992  .000199
GW   450    1     -.02     -.15   17.992     -.02     -.15    17.99  .000199
GW   451    1     -.02     -.15    17.99     -.02     -.15   17.988  .000199
GW   452    1     -.02     -.15   17.988     -.02     -.15   17.987  .000199
GW   453    1     -.02     -.15   17.987     -.02     -.15   17.985  .000199
GW   454    1     -.02     -.15   17.985     -.02     -.15   17.983  .000199
GW   455    1     -.02     -.15   17.983     -.02     -.15   17.982  .000199
GW   456    1     -.02     -.15   17.982     -.02     -.15    17.98  .000199
GW   457    1     -.02     -.15    17.98     -.02     -.15   17.978  .000199
GW   458    1     -.02     -.15   17.978     -.02     -.15   17.977  .000199
GW   459    1     -.02     -.15   17.977     -.02     -.15   17.975  .000199
GW   460    1    -.015     -.15   18.025    -.015     -.15   18.023  .000199
GW   461    1    -.015     -.15   18.023    -.015     -.15   18.022  .000199
GW   462    1    -.015     -.15   18.022    -.015     -.15    18.02  .000199
GW   463    1    -.015     -.15    18.02    -.015     -.15   18.018  .000199
GW   464    1    -.015     -.15   18.018    -.015     -.15   18.017  .000199
GW   465    1    -.015     -.15   18.017    -.015     -.15   18.015  .000199
GW   466    1    -.015     -.15   18.015    -.015     -.15   18.013  .000199
GW   467    1    -.015     -.15   18.013    -.015     -.15   18.012  .000199
GW   468    1    -.015     -.15   18.012    -.015     -.15    18.01  .000199
GW   469    1    -.015     -.15    18.01    -.015     -.15   18.008  .000199
GW   470    1    -.015     -.15   18.008    -.015     -.15   18.007  .000199
GW   471    1    -.015     -.15   18.007    -.015     -.15   18.005  .000199
GW   472    1    -.015     -.15   18.005    -.015     -.15   18.003  .000199
GW   473    1    -.015     -.15   18.003    -.015     -.15   18.002  .000199
GW   474    1    -.015     -.15   18.002    -.015     -.15     18.0  .000199
GW   475    1    -.015     -.15     18.0    -.015     -.15   17.998  .000199
GW   476    1    -.015     -.15   17.998    -.015     -.15   17.997  .000199
GW   477    1    -.015     -.15   17.997    -.015     -.15   17.995  .000199
GW   478    1    -.015     -.15   17.995    -.015     -.15   17.993  .000199
GW   479    1    -.015     -.15   17.993    -.015     -.15   17.992  .000199
GW   480    1    -.015     -.15   17.992    -.015     -.15    17.99  .000199