CM 1970s Winegard Suburban Antenna Retro Fit by 300ohm
CM Test model using equivalent diameter of wires of .75 inches wide,  .06 inches thick = .434 dia, .217 radius
CM Design Goal : Channel 6, 94.1 FM and Channel 12 
CM And less than 7 ft long, using existing structure as much as possible
CM Added 1 reflector for Channel 6 and 4 directors for Channel 12
CM AGT = 1.0 (0 db) at 207 mhz,  .97 (-0.1 db) at 85 mhz    Autoseg = 21
CE
GW	1	23	0	3.5	0	0	33.57	0	0.1875
GW	2	23	0	-3.5	0	0	-33.57	0	0.1875
GW	3	7	10.5	3.5	0	10.5	13.62	0	0.1875
GW	4	7	10.5	-3.5	0	10.5	-13.62	0	0.1875
GW	5	1	10.5	2.1	0	9.425	2.1	0	0.0285341
GW	6	1	9.425	2.1	0	8.35	2.1	0	0.0285341
GW	7	1	10.5	-2.1	0	9.425	-2.1	0	0.0285341
GW	8	1	9.425	-2.1	0	8.35	-2.1	0	0.0285341
GW	9	1	10.5	2.1	0	10.5	1.75	0	0.0285341
GW	10	1	10.5	-1.75	0	10.5	-2.1	0	0.0285341
GW	11	1	10.5	-1.75	0	9.575	-1.75	0	0.0285341
GW	12	1	9.575	-1.75	0	8.65	-1.75	0	0.0285341
GW	13	1	10.5	1.75	0	9.575	1.75	0	0.0285341
GW	14	1	9.575	1.75	0	8.65	1.75	0	0.0285341
GW	15	1	10.5	1.75	0	10.5	1.4	0	0.0285341
GW	16	1	10.5	-1.75	0	10.5	-1.4	0	0.0285341
GW	17	1	0	-2.1	0	1.075	-2.1	0	0.0285341
GW	18	1	1.075	-2.1	0	2.15	-2.1	0	0.0285341
GW	19	1	0	2.1	0	1.075	2.1	0	0.0285341
GW	20	1	1.075	2.1	0	2.15	2.1	0	0.0285341
GW	21	1	0	2.1	0	0	1.75	0	0.0285341
GW	22	1	0	-2.1	0	0	-1.75	0	0.0285341
GW	23	1	0	1.75	0	0.925	1.75	0	0.0285341
GW	24	1	0.925	1.75	0	1.85	1.75	0	0.0285341
GW	25	1	0	-1.75	0	0.925	-1.75	0	0.0285341
GW	26	1	0.925	-1.75	0	1.85	-1.75	0	0.0285341
GW	27	1	0	1.75	0	0	1.4	0	0.0285341
GW	28	1	0	-1.75	0	0	-1.4	0	0.0285341
GW	29	1	2.3	-0.19	1.2	3.70625	-0.19	1.2	0.0285341
GW	30	1	3.70625	-0.19	1.2	5.1125	-0.19	1.2	0.0285341
GW	31	1	5.1125	-0.19	1.2	6.51875	-0.19	1.2	0.0285341
GW	32	1	6.51875	-0.19	1.2	7.925	-0.19	1.2	0.0285341
GW	33	1	1.85	1.75	0	2.075	0.78	0.6	0.0285341
GW	34	1	2.075	0.78	0.6	2.3	-0.19	1.2	0.0285341
GW	35	1	2.6	0.19	1.2	4.00625	0.19	1.2	0.0285341
GW	36	1	4.00625	0.19	1.2	5.4125	0.19	1.2	0.0285341
GW	37	1	5.4125	0.19	1.2	6.81875	0.19	1.2	0.0285341
GW	38	1	6.81875	0.19	1.2	8.225	0.19	1.2	0.0285341
GW	39	1	2.15	2.1	0	2.375	1.145	0.6	0.0285341
GW	40	1	2.375	1.145	0.6	2.6	0.19	1.2	0.0285341
GW	41	1	7.925	-0.19	1.2	8.1375	-1.145	0.6	0.0285341
GW	42	1	8.1375	-1.145	0.6	8.35	-2.1	0	0.0285341
GW	43	1	8.225	0.19	1.2	8.4375	-0.78	0.6	0.0285341
GW	44	1	8.4375	-0.78	0.6	8.65	-1.75	0	0.0285341
GW	45	1	2.3	0.19	-1.2	3.70625	0.19	-1.2	0.0285341
GW	46	1	3.70625	0.19	-1.2	5.1125	0.19	-1.2	0.0285341
GW	47	1	5.1125	0.19	-1.2	6.51875	0.19	-1.2	0.0285341
GW	48	1	6.51875	0.19	-1.2	7.925	0.19	-1.2	0.0285341
GW	49	1	2.6	-0.19	-1.2	4.00625	-0.19	-1.2	0.0285341
GW	50	1	4.00625	-0.19	-1.2	5.4125	-0.19	-1.2	0.0285341
GW	51	1	5.4125	-0.19	-1.2	6.81875	-0.19	-1.2	0.0285341
GW	52	1	6.81875	-0.19	-1.2	8.225	-0.19	-1.2	0.0285341
GW	53	1	2.3	0.19	-1.2	2.075	-0.78	-0.6	0.0285341
GW	54	1	2.075	-0.78	-0.6	1.85	-1.75	0	0.0285341
GW	55	1	2.6	-0.19	-1.2	2.375	-1.145	-0.6	0.0285341
GW	56	1	2.375	-1.145	-0.6	2.15	-2.1	0	0.0285341
GW	57	1	8.35	2.1	0	8.1375	1.145	-0.6	0.0285341
GW	58	1	8.1375	1.145	-0.6	7.925	0.19	-1.2	0.0285341
GW	59	1	8.65	1.75	0	8.4375	0.78	-0.6	0.0285341
GW	60	1	8.4375	0.78	-0.6	8.225	-0.19	-1.2	0.0285341
GW	61	1	2.15	2.1	0	1.85	1.75	0	0.0285341
GW	62	1	1.85	-1.75	0	2.15	-2.1	0	0.0285341
GW	63	1	8.35	2.1	0	8.65	1.75	0	0.0285341
GW	64	1	8.65	-1.75	0	8.35	-2.1	0	0.0285341
GW	65	1	7.925	-0.19	1.2	8.225	0.19	1.2	0.0285341
GW	66	1	8.225	-0.19	-1.2	7.925	0.19	-1.2	0.0285341
GW	67	1	5.4125	-0.19	-1.2	5.1125	0.19	-1.2	0.0285341
GW	68	1	5.1125	-0.19	1.2	5.4125	0.19	1.2	0.0285341
GW	69	1	2.6	-0.19	-1.2	2.3	0.19	-1.2	0.0285341
GW	70	1	2.6	0.19	1.2	2.3	-0.19	1.2	0.0285341
GW	71	1	1.075	2.1	0	0.925	1.75	0	0.0285341
GW	72	1	0.925	-1.75	0	1.075	-2.1	0	0.0285341
GW	73	1	9.425	2.1	0	9.575	1.75	0	0.0285341
GW	74	1	9.425	-2.1	0	9.575	-1.75	0	0.0285341
GW	75	1	8.1375	1.145	-0.6	8.4375	0.78	-0.6	0.0285341
GW	76	1	8.1375	-1.145	0.6	8.4375	-0.78	0.6	0.0285341
GW	77	1	4.00625	0.19	1.2	3.70625	-0.19	1.2	0.0285341
GW	78	1	6.81875	0.19	1.2	6.51875	-0.19	1.2	0.0285341
GW	79	1	3.70625	0.19	-1.2	4.00625	-0.19	-1.2	0.0285341
GW	80	1	6.51875	0.19	-1.2	6.81875	-0.19	-1.2	0.0285341
GW	81	1	2.075	-0.78	-0.6	2.375	-1.145	-0.6	0.0285341
GW	82	1	2.075	0.78	0.6	2.375	1.145	0.6	0.0285341
GW	83	1	10.5	2.1	0	10.5	3.5	0	0.0285341
GW	84	1	10.5	-2.1	0	10.5	-3.5	0	0.0285341
GW	85	1	0	-2.1	0	0	-3.5	0	0.0285341
GW	86	1	0	2.1	0	0	3.5	0	0.0285341
GW	87	3	10.5	-1.4	0	10.5	1.4	0	0.225
GW	88	7	0	0	0	9	0	0	0.5
GW	89	19	14.75	12.33	0	14.75	-12.33	0	0.1875
GW	90	19	25.02	12.19	0	25.02	-12.19	0	0.1875
GW	91	19	37.27	12.05	0	37.27	-12.05	0	0.1875
GW	94	19	51.52	11.93	0	51.52	-11.93	0	0.1875
GW	92	51	-27.76	33.96	0	-27.76	-33.96	0	0.1875
GW	93	21	0	13.88	-1.125	0	-13.88	-1.125	0.1875
GW	95	3	0	-33.57	0	0	-33.57	-3	0.1875
GW	96	3	0	33.57	0	0	33.57	-3	0.1875
GW	98	3	10.5	-13.62	0	10.5	-13.62	-3	0.1875
GW	99	3	10.5	13.62	0	10.5	13.62	-3	0.1875
GW	125	49	0	33.57	-3	0	-33.57	-3	0.217
GW	126	21	10.5	-13.62	-3	10.5	13.62	-3	0.217
GS	0	0	0.0254		' All in in.
GE	0
EK
LD	5	0	0	0	2.49e7	0
EX	0	87	2	0	1	0
GN	-1
FR	0	1	0	0	207	0