CM Length L in mtr. = .050
CM Radius R1 in cm. = 1.5
CM Radius R2 in cm. = 1.5
CM Number of turns = 1
CM Segments per turn = 9
CM Rotate X, Y, Z = 0, 0, 0
CM Move X, Y, Z = 0, 0, 0
CE
GW   100    2     .015       .0     18.0  .011491  .009642   18.006    .0016
GW   101    2  .011491  .009642   18.006  .002605  .014772   18.011    .0016
GW   102    2  .002605  .014772   18.011   -.0075   .01299   18.017    .0016
GW   103    2   -.0075   .01299   18.017 -.014095   .00513   18.022    .0016
GW   104    2 -.014095   .00513   18.022 -.014095  -.00513   18.028    .0016
GW   105    2 -.014095  -.00513   18.028   -.0075  -.01299   18.033    .0016
GW   106    2   -.0075  -.01299   18.033  .002605 -.014772   18.039    .0016
GW   107    2  .002605 -.014772   18.039  .011491 -.009642   18.044    .0016
GW   108    2  .011491 -.009642   18.044     .015       .0    18.05    .0016
GE 0
FR 0 0 0 0 2483
