CM Length X = .6
CM Y = 12
CM Focus pnt = 0.2
CM X sections = 30
CM Y sections = 30
CM Rotate X, Y, Z = 0, 0, 0
CM Move X, Y, Z = 0, 0, 0
CE
GW   100  950      -.3     -6.0     63.0      -.3     -5.6     57.2  .003032
GW   101  885      -.3     -5.6     57.2      -.3     -5.2     51.8  .003032
GW   102  820      -.3     -5.2     51.8      -.3     -4.8     46.8  .003032
GW   103  755      -.3     -4.8     46.8      -.3     -4.4     42.2  .003032
GW   104  690      -.3     -4.4     42.2      -.3     -4.0     38.0  .003032
GW   105  625      -.3     -4.0     38.0      -.3     -3.6     34.2  .003032
GW   106  560      -.3     -3.6     34.2      -.3     -3.2     30.8  .003032
GW   107  495      -.3     -3.2     30.8      -.3     -2.8     27.8  .003032
GW   108  430      -.3     -2.8     27.8      -.3     -2.4     25.2  .003032
GW   109  365      -.3     -2.4     25.2      -.3     -2.0     23.0  .003032
GW   110  301      -.3     -2.0     23.0      -.3     -1.6     21.2  .003032
GW   111  238      -.3     -1.6     21.2      -.3     -1.2     19.8  .003032
GW   112  176      -.3     -1.2     19.8      -.3      -.8     18.8  .003032
GW   113  118      -.3      -.8     18.8      -.3      -.4     18.2  .003032
GW   114   73      -.3      -.4     18.2      -.3       .0     18.0  .003032
GW   115   73      -.3       .0     18.0      -.3       .4     18.2  .003032
GW   116  118      -.3       .4     18.2      -.3       .8     18.8  .003032
GW   117  176      -.3       .8     18.8      -.3      1.2     19.8  .003032
GW   118  238      -.3      1.2     19.8      -.3      1.6     21.2  .003032
GW   119  301      -.3      1.6     21.2      -.3      2.0     23.0  .003032
GW   120  365      -.3      2.0     23.0      -.3      2.4     25.2  .003032
GW   121  430      -.3      2.4     25.2      -.3      2.8     27.8  .003032
GW   122  495      -.3      2.8     27.8      -.3      3.2     30.8  .003032
GW   123  560      -.3      3.2     30.8      -.3      3.6     34.2  .003032
GW   124  625      -.3      3.6     34.2      -.3      4.0     38.0  .003032
GW   125  690      -.3      4.0     38.0      -.3      4.4     42.2  .003032
GW   126  755      -.3      4.4     42.2      -.3      4.8     46.8  .003032
GW   127  820      -.3      4.8     46.8      -.3      5.2     51.8  .003032
GW   128  885      -.3      5.2     51.8      -.3      5.6     57.2  .003032
GW   129  950      -.3      5.6     57.2      -.3      6.0     63.0  .003032
GW   130  950     -.28     -6.0     63.0     -.28     -5.6     57.2  .003032
GW   131  885     -.28     -5.6     57.2     -.28     -5.2     51.8  .003032
GW   132  820     -.28     -5.2     51.8     -.28     -4.8     46.8  .003032
GW   133  755     -.28     -4.8     46.8     -.28     -4.4     42.2  .003032
GW   134  690     -.28     -4.4     42.2     -.28     -4.0     38.0  .003032
GW   135  625     -.28     -4.0     38.0     -.28     -3.6     34.2  .003032
GW   136  560     -.28     -3.6     34.2     -.28     -3.2     30.8  .003032
GW   137  495     -.28     -3.2     30.8     -.28     -2.8     27.8  .003032
GW   138  430     -.28     -2.8     27.8     -.28     -2.4     25.2  .003032
GW   139  365     -.28     -2.4     25.2     -.28     -2.0     23.0  .003032
GW   140  301     -.28     -2.0     23.0     -.28     -1.6     21.2  .003032
GW   141  238     -.28     -1.6     21.2     -.28     -1.2     19.8  .003032
GW   142  176     -.28     -1.2     19.8     -.28      -.8     18.8  .003032
GW   143  118     -.28      -.8     18.8     -.28      -.4     18.2  .003032
GW   144   73     -.28      -.4     18.2     -.28       .0     18.0  .003032
GW   145   73     -.28       .0     18.0     -.28       .4     18.2  .003032
GW   146  118     -.28       .4     18.2     -.28       .8     18.8  .003032
GW   147  176     -.28       .8     18.8     -.28      1.2     19.8  .003032
GW   148  238     -.28      1.2     19.8     -.28      1.6     21.2  .003032
GW   149  301     -.28      1.6     21.2     -.28      2.0     23.0  .003032
GW   150  365     -.28      2.0     23.0     -.28      2.4     25.2  .003032
GW   151  430     -.28      2.4     25.2     -.28      2.8     27.8  .003032
GW   152  495     -.28      2.8     27.8     -.28      3.2     30.8  .003032
GW   153  560     -.28      3.2     30.8     -.28      3.6     34.2  .003032
GW   154  625     -.28      3.6     34.2     -.28      4.0     38.0  .003032
GW   155  690     -.28      4.0     38.0     -.28      4.4     42.2  .003032
GW   156  755     -.28      4.4     42.2     -.28      4.8     46.8  .003032
GW   157  820     -.28      4.8     46.8     -.28      5.2     51.8  .003032
GW   158  885     -.28      5.2     51.8     -.28      5.6     57.2  .003032
GW   159  950     -.28      5.6     57.2     -.28      6.0     63.0  .003032
GW   160  950     -.26     -6.0     63.0     -.26     -5.6     57.2  .003032
GW   161  885     -.26     -5.6     57.2     -.26     -5.2     51.8  .003032
GW   162  820     -.26     -5.2     51.8     -.26     -4.8     46.8  .003032
GW   163  755     -.26     -4.8     46.8     -.26     -4.4     42.2  .003032
GW   164  690     -.26     -4.4     42.2     -.26     -4.0     38.0  .003032
GW   165  625     -.26     -4.0     38.0     -.26     -3.6     34.2  .003032
GW   166  560     -.26     -3.6     34.2     -.26     -3.2     30.8  .003032
GW   167  495     -.26     -3.2     30.8     -.26     -2.8     27.8  .003032
GW   168  430     -.26     -2.8     27.8     -.26     -2.4     25.2  .003032
GW   169  365     -.26     -2.4     25.2     -.26     -2.0     23.0  .003032
GW   170  301     -.26     -2.0     23.0     -.26     -1.6     21.2  .003032
GW   171  238     -.26     -1.6     21.2     -.26     -1.2     19.8  .003032
GW   172  176     -.26     -1.2     19.8     -.26      -.8     18.8  .003032
GW   173  118     -.26      -.8     18.8     -.26      -.4     18.2  .003032
GW   174   73     -.26      -.4     18.2     -.26       .0     18.0  .003032
GW   175   73     -.26       .0     18.0     -.26       .4     18.2  .003032
GW   176  118     -.26       .4     18.2     -.26       .8     18.8  .003032
GW   177  176     -.26       .8     18.8     -.26      1.2     19.8  .003032
GW   178  238     -.26      1.2     19.8     -.26      1.6     21.2  .003032
GW   179  301     -.26      1.6     21.2     -.26      2.0     23.0  .003032
GW   180  365     -.26      2.0     23.0     -.26      2.4     25.2  .003032
GW   181  430     -.26      2.4     25.2     -.26      2.8     27.8  .003032
GW   182  495     -.26      2.8     27.8     -.26      3.2     30.8  .003032
GW   183  560     -.26      3.2     30.8     -.26      3.6     34.2  .003032
GW   184  625     -.26      3.6     34.2     -.26      4.0     38.0  .003032
GW   185  690     -.26      4.0     38.0     -.26      4.4     42.2  .003032
GW   186  755     -.26      4.4     42.2     -.26      4.8     46.8  .003032
GW   187  820     -.26      4.8     46.8     -.26      5.2     51.8  .003032
GW   188  885     -.26      5.2     51.8     -.26      5.6     57.2  .003032
GW   189  950     -.26      5.6     57.2     -.26      6.0     63.0  .003032
GW   190  950     -.24     -6.0     63.0     -.24     -5.6     57.2  .003032
GW   191  885     -.24     -5.6     57.2     -.24     -5.2     51.8  .003032
GW   192  820     -.24     -5.2     51.8     -.24     -4.8     46.8  .003032
GW   193  755     -.24     -4.8     46.8     -.24     -4.4     42.2  .003032
GW   194  690     -.24     -4.4     42.2     -.24     -4.0     38.0  .003032
GW   195  625     -.24     -4.0     38.0     -.24     -3.6     34.2  .003032
GW   196  560     -.24     -3.6     34.2     -.24     -3.2     30.8  .003032
GW   197  495     -.24     -3.2     30.8     -.24     -2.8     27.8  .003032
GW   198  430     -.24     -2.8     27.8     -.24     -2.4     25.2  .003032
GW   199  365     -.24     -2.4     25.2     -.24     -2.0     23.0  .003032
GW   200  301     -.24     -2.0     23.0     -.24     -1.6     21.2  .003032
GW   201  238     -.24     -1.6     21.2     -.24     -1.2     19.8  .003032
GW   202  176     -.24     -1.2     19.8     -.24      -.8     18.8  .003032
GW   203  118     -.24      -.8     18.8     -.24      -.4     18.2  .003032
GW   204   73     -.24      -.4     18.2     -.24       .0     18.0  .003032
GW   205   73     -.24       .0     18.0     -.24       .4     18.2  .003032
GW   206  118     -.24       .4     18.2     -.24       .8     18.8  .003032
GW   207  176     -.24       .8     18.8     -.24      1.2     19.8  .003032
GW   208  238     -.24      1.2     19.8     -.24      1.6     21.2  .003032
GW   209  301     -.24      1.6     21.2     -.24      2.0     23.0  .003032
GW   210  365     -.24      2.0     23.0     -.24      2.4     25.2  .003032
GW   211  430     -.24      2.4     25.2     -.24      2.8     27.8  .003032
GW   212  495     -.24      2.8     27.8     -.24      3.2     30.8  .003032
GW   213  560     -.24      3.2     30.8     -.24      3.6     34.2  .003032
GW   214  625     -.24      3.6     34.2     -.24      4.0     38.0  .003032
GW   215  690     -.24      4.0     38.0     -.24      4.4     42.2  .003032
GW   216  755     -.24      4.4     42.2     -.24      4.8     46.8  .003032
GW   217  820     -.24      4.8     46.8     -.24      5.2     51.8  .003032
GW   218  885     -.24      5.2     51.8     -.24      5.6     57.2  .003032
GW   219  950     -.24      5.6     57.2     -.24      6.0     63.0  .003032
GW   220  950     -.22     -6.0     63.0     -.22     -5.6     57.2  .003032
GW   221  885     -.22     -5.6     57.2     -.22     -5.2     51.8  .003032
GW   222  820     -.22     -5.2     51.8     -.22     -4.8     46.8  .003032
GW   223  755     -.22     -4.8     46.8     -.22     -4.4     42.2  .003032
GW   224  690     -.22     -4.4     42.2     -.22     -4.0     38.0  .003032
GW   225  625     -.22     -4.0     38.0     -.22     -3.6     34.2  .003032
GW   226  560     -.22     -3.6     34.2     -.22     -3.2     30.8  .003032
GW   227  495     -.22     -3.2     30.8     -.22     -2.8     27.8  .003032
GW   228  430     -.22     -2.8     27.8     -.22     -2.4     25.2  .003032
GW   229  365     -.22     -2.4     25.2     -.22     -2.0     23.0  .003032
GW   230  301     -.22     -2.0     23.0     -.22     -1.6     21.2  .003032
GW   231  238     -.22     -1.6     21.2     -.22     -1.2     19.8  .003032
GW   232  176     -.22     -1.2     19.8     -.22      -.8     18.8  .003032
GW   233  118     -.22      -.8     18.8     -.22      -.4     18.2  .003032
GW   234   73     -.22      -.4     18.2     -.22       .0     18.0  .003032
GW   235   73     -.22       .0     18.0     -.22       .4     18.2  .003032
GW   236  118     -.22       .4     18.2     -.22       .8     18.8  .003032
GW   237  176     -.22       .8     18.8     -.22      1.2     19.8  .003032
GW   238  238     -.22      1.2     19.8     -.22      1.6     21.2  .003032
GW   239  301     -.22      1.6     21.2     -.22      2.0     23.0  .003032
GW   240  365     -.22      2.0     23.0     -.22      2.4     25.2  .003032
GW   241  430     -.22      2.4     25.2     -.22      2.8     27.8  .003032
GW   242  495     -.22      2.8     27.8     -.22      3.2     30.8  .003032
GW   243  560     -.22      3.2     30.8     -.22      3.6     34.2  .003032
GW   244  625     -.22      3.6     34.2     -.22      4.0     38.0  .003032
GW   245  690     -.22      4.0     38.0     -.22      4.4     42.2  .003032
GW   246  755     -.22      4.4     42.2     -.22      4.8     46.8  .003032
GW   247  820     -.22      4.8     46.8     -.22      5.2     51.8  .003032
GW   248  885     -.22      5.2     51.8     -.22      5.6     57.2  .003032
GW   249  950     -.22      5.6     57.2     -.22      6.0     63.0  .003032
GW   250  950      -.2     -6.0     63.0      -.2     -5.6     57.2  .003032
GW   251  885      -.2     -5.6     57.2      -.2     -5.2     51.8  .003032
GW   252  820      -.2     -5.2     51.8      -.2     -4.8     46.8  .003032
GW   253  755      -.2     -4.8     46.8      -.2     -4.4     42.2  .003032
GW   254  690      -.2     -4.4     42.2      -.2     -4.0     38.0  .003032
GW   255  625      -.2     -4.0     38.0      -.2     -3.6     34.2  .003032
GW   256  560      -.2     -3.6     34.2      -.2     -3.2     30.8  .003032
GW   257  495      -.2     -3.2     30.8      -.2     -2.8     27.8  .003032
GW   258  430      -.2     -2.8     27.8      -.2     -2.4     25.2  .003032
GW   259  365      -.2     -2.4     25.2      -.2     -2.0     23.0  .003032
GW   260  301      -.2     -2.0     23.0      -.2     -1.6     21.2  .003032
GW   261  238      -.2     -1.6     21.2      -.2     -1.2     19.8  .003032
GW   262  176      -.2     -1.2     19.8      -.2      -.8     18.8  .003032
GW   263  118      -.2      -.8     18.8      -.2      -.4     18.2  .003032
GW   264   73      -.2      -.4     18.2      -.2       .0     18.0  .003032
GW   265   73      -.2       .0     18.0      -.2       .4     18.2  .003032
GW   266  118      -.2       .4     18.2      -.2       .8     18.8  .003032
GW   267  176      -.2       .8     18.8      -.2      1.2     19.8  .003032
GW   268  238      -.2      1.2     19.8      -.2      1.6     21.2  .003032
GW   269  301      -.2      1.6     21.2      -.2      2.0     23.0  .003032
GW   270  365      -.2      2.0     23.0      -.2      2.4     25.2  .003032
GW   271  430      -.2      2.4     25.2      -.2      2.8     27.8  .003032
GW   272  495      -.2      2.8     27.8      -.2      3.2     30.8  .003032
GW   273  560      -.2      3.2     30.8      -.2      3.6     34.2  .003032
GW   274  625      -.2      3.6     34.2      -.2      4.0     38.0  .003032
GW   275  690      -.2      4.0     38.0      -.2      4.4     42.2  .003032
GW   276  755      -.2      4.4     42.2      -.2      4.8     46.8  .003032
GW   277  820      -.2      4.8     46.8      -.2      5.2     51.8  .003032
GW   278  885      -.2      5.2     51.8      -.2      5.6     57.2  .003032
GW   279  950      -.2      5.6     57.2      -.2      6.0     63.0  .003032
GW   280  950     -.18     -6.0     63.0     -.18     -5.6     57.2  .003032
GW   281  885     -.18     -5.6     57.2     -.18     -5.2     51.8  .003032
GW   282  820     -.18     -5.2     51.8     -.18     -4.8     46.8  .003032
GW   283  755     -.18     -4.8     46.8     -.18     -4.4     42.2  .003032
GW   284  690     -.18     -4.4     42.2     -.18     -4.0     38.0  .003032
GW   285  625     -.18     -4.0     38.0     -.18     -3.6     34.2  .003032
GW   286  560     -.18     -3.6     34.2     -.18     -3.2     30.8  .003032
GW   287  495     -.18     -3.2     30.8     -.18     -2.8     27.8  .003032
GW   288  430     -.18     -2.8     27.8     -.18     -2.4     25.2  .003032
GW   289  365     -.18     -2.4     25.2     -.18     -2.0     23.0  .003032
GW   290  301     -.18     -2.0     23.0     -.18     -1.6     21.2  .003032
GW   291  238     -.18     -1.6     21.2     -.18     -1.2     19.8  .003032
GW   292  176     -.18     -1.2     19.8     -.18      -.8     18.8  .003032
GW   293  118     -.18      -.8     18.8     -.18      -.4     18.2  .003032
GW   294   73     -.18      -.4     18.2     -.18       .0     18.0  .003032
GW   295   73     -.18       .0     18.0     -.18       .4     18.2  .003032
GW   296  118     -.18       .4     18.2     -.18       .8     18.8  .003032
GW   297  176     -.18       .8     18.8     -.18      1.2     19.8  .003032
GW   298  238     -.18      1.2     19.8     -.18      1.6     21.2  .003032
GW   299  301     -.18      1.6     21.2     -.18      2.0     23.0  .003032
GW   300  365     -.18      2.0     23.0     -.18      2.4     25.2  .003032
GW   301  430     -.18      2.4     25.2     -.18      2.8     27.8  .003032
GW   302  495     -.18      2.8     27.8     -.18      3.2     30.8  .003032
GW   303  560     -.18      3.2     30.8     -.18      3.6     34.2  .003032
GE 0
FR 0 0 0 0 2450
