CM Quados 8 sector Antenna resized for 585 UHF
CE
GW	1	15	0	7.5570008	6.483673	0	3.274126	10.766548	0.13779528
GW	2	15	0	3.2741256	2.200798	0	7.5570008	6.483673	0.13779528
GW	3	15	0	-6.7791756	6.516548	0	-2.4963008	10.799423	0.13779528
GW	4	15	0	-2.4963004	2.233673	0	-6.7791756	6.516548	0.13779528
GW	5	9	0	-2.4963004	2.233673	0	-2.5264705	-0.948184	0.13779528
GW	6	9	0	3.2741256	2.200798	0	3.24395513	-0.981059	0.13779528
GW	7	9	0	-2.5264705	-0.948184	0	-2.5468973	-4.165309	0.13779528
GW	8	9	0	3.24395513	-0.981059	0	3.22352954	-4.198184	0.13779528
GW	10	17	0	3.274126	10.766548	0	3.24601025	17.259487	0.13779528
GW	11	17	0	-2.4963008	10.799423	0	-2.5244166	17.292362	0.13779528
GW	12	15	0	7.5288854	21.542362	0	3.24601064	25.825237	0.13779528
GW	13	15	0	3.24601025	17.259487	0	7.5288854	21.542362	0.13779528
GW	14	15	0	-6.8072906	21.575237	0	-2.5244162	25.858112	0.13779528
GW	15	15	0	-2.5244158	17.292362	0	-6.8072906	21.575237	0.13779528
GW	26	17	0	-2.5244162	25.858112	0	-2.5533024	32.52905	0.13779528
GW	27	17	0	3.24601064	25.825237	0	3.21712442	32.496175	0.13779528
GW	28	15	0	7.4999996	36.77905	0	3.21712482	41.061925	0.13779528
GW	29	15	0	3.21712442	32.496175	0	7.4999996	36.77905	0.13779528
GW	30	15	0	-6.8361768	36.811925	0	-2.553302	41.0948	0.13779528
GW	31	15	0	-2.5533016	32.52905	0	-6.8361768	36.811925	0.13779528
GW	32	19	0	-2.553302	48.25	0	-2.553302	41.0948	0.13779528
GW	33	19	0	3.21712482	48.217125	0	3.21712482	41.061925	0.13779528
GW	35	15	0	3.21712482	48.217125	0	7.5	52.5	0.13779528
GW	37	15	0	-2.5533012	48.25	0	-6.8361764	52.532875	0.13779528
GW	38	31	0	7.5	52.5	0	0	62	0.13779528
GW	39	29	0	-6.8361764	52.532875	0	0	62	0.13779528
GW	40	15	0	-6.8003634	-54.550919	0	-2.5174886	-50.268044	0.13779528
GW	41	31	0	0.6638236	-63.967125	0	-6.8003634	-54.550919	0.13779528
GW	42	15	0	7.5358126	-54.583794	0	3.25293781	-50.300919	0.13779528
GW	43	29	0	0.6638236	-63.967125	0	7.5358126	-54.583794	0.13779528
GW	44	17	0	-2.5174886	-50.268044	0	-2.4893729	-43.775105	0.13779528
GW	45	17	0	3.25293781	-50.300919	0	3.28105356	-43.80798	0.13779528
GW	46	15	0	-6.7722481	-39.49223	0	-2.4893733	-35.209355	0.13779528
GW	47	15	0	-2.4893729	-43.775105	0	-6.7722481	-39.49223	0.13779528
GW	48	15	0	7.5639284	-39.525105	0	3.28105316	-35.24223	0.13779528
GW	49	15	0	3.28105316	-43.80798	0	7.5639284	-39.525105	0.13779528
GW	50	17	0	3.28105316	-35.24223	0	3.30993978	-28.571292	0.13779528
GW	51	17	0	-2.4893733	-35.209355	0	-2.460487	-28.538417	0.13779528
GW	52	15	0	-6.7433622	-24.255542	0	-2.4604874	-19.972667	0.13779528
GW	53	15	0	-2.460487	-28.538417	0	-6.7433622	-24.255542	0.13779528
GW	54	15	0	7.5928142	-24.288417	0	3.30993938	-20.005542	0.13779528
GW	55	15	0	3.30993899	-28.571292	0	7.5928142	-24.288417	0.13779528
GW	56	19	0	3.30993938	-12.850342	0	3.30993938	-20.005542	0.13779528
GW	57	19	0	-2.4604874	-12.817467	0	-2.4604874	-19.972667	0.13779528
GW	58	15	0	-2.4604874	-12.817467	0	-6.7433626	-8.5345927	0.13779528
GW	59	15	0	3.30993859	-12.850342	0	7.5928138	-8.5674675	0.13779528
GW	60	15	0	-6.7433626	-8.5345927	0	-2.5468973	-4.165309	0.13779528
GW	61	15	0	7.5928138	-8.5674675	0	3.22352954	-4.198184	0.13779528
GW	62	15	0	-2.5264705	-0.948184	0	3.24395513	-0.981059	0.16243037
GS	0	0	0.0254		' All in in.
GE	0
EK
LD	5	0	0	0	5.8e7	0
EX	0	62	8	0	1	0
GN	-1
FR	0	1	0	0	585	0