CM Basic slotted dipole model 2009 (c) bokakob
CE
GW 1 1 0 -5.e-3 0 0 5.e-3 0 1.e-4
GW 2 53 0 -5.e-3 0 0 -5.e-3 0.12 1.e-4
GW 3 53 0 5.e-3 0 0 5.e-3 0.12 1.e-4
GW 4 5 0 -5.e-3 0.12 0 5.e-3 0.12 1.e-4
GW 5 53 0 -5.e-3 0 0 -5.e-3 -0.12 1.e-4
GW 6 53 0 5.e-3 0 0 5.e-3 -0.12 1.e-4
GW 7 5 0 -5.e-3 -0.12 0 5.e-3 -0.12 1.e-4
SP 0 1 0 0.15 0.12 0 -0.15 0.12
SC 0 -1 0 -0.15 0.24 0 0
SP 0 1 0 0.15 -0.12 0 0.15 -0.24
SC 0 -1 0 -0.15 -0.24 0 0
SP 0 1 0 5.e-3 0.12 0 0.15 0.12
SC 0 -1 0 0.15 -0.12 0 0
SP 0 1 0 -5.e-3 0.12 0 -5.e-3 -0.12
SC 0 -1 0 -0.15 -0.12 0 0
GE 0
EK
EX 0 1 1 0 0 0
GN -1
FR 0 1 0 0 640 0
EN