CE
GW	1	9	0	-0.2	-0.4	0	0.2	-0.4	1.e-3
GW	3	3	0	0.2	-0.4	0	0.2	-0.3	1.e-3
GW	9	3	0	0.2	-0.3	0	0.2	-0.2	1.e-3
GW	10	3	0	0.2	-0.2	0	0.2	-0.1	1.e-3
GW	11	3	0	0.2	-0.1	0	0.2	0	1.e-3
GW	4	3	0	-0.2	-0.4	0	-0.2	-0.3	1.e-3
GW	6	3	0	-0.2	-0.3	0	-0.2	-0.2	1.e-3
GW	7	3	0	-0.2	-0.2	0	-0.2	-0.1	1.e-3
GW	8	3	0	-0.2	-0.1	0	-0.2	0	1.e-3
GW	5	9	0	-0.2	0	0	0.2	0	1.e-3
GW	12	51	0	0.2	-0.4	0	2.79	-0.4	1.e-3
GW	13	51	0	0.2	0	0	2.79	0	1.e-3
GW	29	9	0	2.79	0	0	3.19	0	1.e-3
GW	32	11	0	3.19	0	0	3.76	0	1.e-3
GW	39	13	0	3.76	0	0	4.42	0	1.e-3
GW	40	27	0	4.42	0	0	5.79	0	1.e-3
GW	14	51	0	-0.2	-0.4	0	-2.79	-0.4	1.e-3
GW	15	51	0	-0.2	0	0	-2.79	0	1.e-3
GW	26	9	0	-2.79	0	0	-3.19	0	1.e-3
GW	35	11	0	-3.19	0	0	-3.76	0	1.e-3
GW	37	13	0	-3.76	0	0	-4.42	0	1.e-3
GW	41	27	0	-4.42	0	0	-5.79	0	1.e-3
GW	16	51	0	-0.2	-0.1	0	-2.79	-0.1	1.e-3
GW	25	9	0	-2.79	-0.1	0	-3.19	-0.1	1.e-3
GW	34	11	0	-3.19	-0.1	0	-3.76	-0.1	1.e-3
GW	36	13	0	-3.76	-0.1	0	-4.42	-0.1	1.e-3
GW	17	51	0	-0.2	-0.2	0	-2.79	-0.2	1.e-3
GW	24	9	0	-2.79	-0.2	0	-3.19	-0.2	1.e-3
GW	33	11	0	-3.19	-0.2	0	-3.76	-0.2	1.e-3
GW	18	51	0	-0.2	-0.3	0	-2.79	-0.3	1.e-3
GW	22	9	0	-2.79	-0.3	0	-3.19	-0.3	1.e-3
GW	19	51	0	0.2	-0.3	0	2.79	-0.3	1.e-3
GW	23	9	0	2.79	-0.3	0	3.19	-0.3	1.e-3
GW	20	51	0	0.2	-0.2	0	2.79	-0.2	1.e-3
GW	27	9	0	2.79	-0.2	0	3.19	-0.2	1.e-3
GW	30	11	0	3.19	-0.2	0	3.76	-0.2	1.e-3
GW	21	51	0	0.2	-0.1	0	2.79	-0.1	1.e-3
GW	28	9	0	2.79	-0.1	0	3.19	-0.1	1.e-3
GW	31	11	0	3.19	-0.1	0	3.76	-0.1	1.e-3
GW	38	13	0	3.76	-0.1	0	4.42	-0.1	1.e-3
GE	0
TL	1	5	5	5	100	0.6
EX	0	5	5	0	1	0
GN	-1
FR	0	1	0	0	28.5	0
