CM NEC Input File Panel_2x2a for 2442 MHz, Pow 20020706 |
CM Frequency range 2412..2472 MHz                       |
CM   + 14 dBi gain, f/b ratio 18 dB                     |
CM   + 40 deg horiz, 30 deg vertical 3 dB beamwidth     |
CM   + SWR < 1.3                                        |
CM All data in wavelengths. Scaled to meters with GS    |
CM Frequency range: 2412 - 2472 MHz |
CM Physical dimensions reflector plate: 185mm x 185mm (352 mm x 185 mm) (heigth = 30 mm without side reflector or 49 mm with side reflectors) |
CM Gain: 14 dBi(15.7 dBi with 83.5 mm (0.68 wavelength)side reflector on both side at angle of 36 degrees)  |
CM Front to back ratio: 18 dB |
CM Half power beamwidth: 40 degrees H-plane & 14 dBi gain(30 degrees with side reflectors & 15.7 dBi gain), 30 degrees E-plane
CM SWR < 1.3 (in practice adjust array height over reflector (default height = 27 mm or 0.22 wavelength) |
CM Main reflector size = 184.20 x 184.20 mm (1.5 wavelength) |
CM Side reflectors size = 184.20 (1.5 wavelength) x 83.5 mm (0.68 wavelength) |
CM Dipole wire guage 14 AWG (1.6 mm or 0.006 wavelength) |
CM Total length of each dipole = 61.4 mm (0.5 wavelength) |
CM Distance between dipole vertically (center to center) and horizontally = 93.30 mm (0.76 wavelength) |
CM Total antenna height 49 mm (0.4 wavelength) with side reflectors |
CM -----------------------------[ http://pow.za.net/ ]--
CE
SY W=0.0164	'Wire radius 0.0164 (2 MM wire Diameter)
SY Rx=3/2, Rnx=5	'Reflector width / 2
SY Ry=4/2, Rny=5	'Reflector height / 2
SY H=0.264	'Height from refl. surface to dipole wire center
SY A=0.27	'Half length of element A
SY B=0.50	'Length of element B
SY C=0.50	'Length of element C
SY D=0.176	'Width of stub
SY E=0.172	'Height of stub
SY F=0.0885/2	'Gap bettween 2 horizontal lines
SY X=0.840*1.5	'Half length of horizontal lines
SY G=X/2.5422	'Gap between inverted amos elements
SM	Rnx*2	Rny*2	0	-Rx	-Ry	0	Rx	-Ry	'Reflector
SC	0	0	0	Rx	Ry	'Reflector
GW	2	20	H	-X	-F	H	X	-F	W	'Horizontal wire
GW	3	20	H	-X	F	H	X	F	W	'Horizontal wire
GW	4	1	H	0	-F	H	0	F	W	'Centre feed
GW	5	5	H	-X	F	H	-X	A	W	'Left upper element
GW	6	3	H	-X	A	H+E	-X	A	W	'Left upper element
GW	7	3	H+E	-X	A	H+E	-X	A+D	W	'Left upper element
GW	8	3	H+E	-X	A+D	H	-X	A+D	W	'Left upper element
GW	9	5	H	-X	A+D	H	-X	A+D+B	W	'Left upper element
GW	10	3	H	-X	A+D+B	H+E	-X	A+D+B	W	'Left upper element
GW	11	3	H+E	-X	A+D+B	H+E	-X	A+D+B+D	W	'Left upper element
GW	12	3	H+E	-X	A+D+B+D	H	-X	A+D+B+D	W	'Left upper element
GW	13	5	H	-X	A+D+B+D	H	-X	A+D+B+D+C	W	'Left upper element
GW	14	5	H	X	F	H	X	A	W	'Right upper element
GW	15	3	H	X	A	H+E	X	A	W	'Right upper element
GW	16	3	H+E	X	A	H+E	X	A+D	W	'Right upper element
GW	17	3	H+E	X	A+D	H	X	A+D	W	'Right upper element
GW	18	5	H	X	A+D	H	X	A+D+B	W	'Right upper element
GW	19	3	H	X	A+D+B	H+E	X	A+D+B	W	'Right upper element
GW	20	3	H+E	X	A+D+B	H+E	X	A+D+B+D	W	'Right upper element
GW	21	3	H+E	X	A+D+B+D	H	X	A+D+B+D	W	'Right upper element
GW	22	5	H	X	A+D+B+D	H	X	A+D+B+D+C	W	'Right upper element
GW	23	5	H	-G	F	H	-G	A	W	'Left middle upper element
GW	24	3	H	-G	A	H+E	-G	A	W	'Left middle upper element
GW	25	3	H+E	-G	A	H+E	-G	A+D	W	'Left middle upper element
GW	26	3	H+E	-G	A+D	H	-G	A+D	W	'Left middle upper element
GW	27	5	H	-G	A+D	H	-G	A+D+B	W	'Left middle upper element
GW	28	3	H	-G	A+D+B	H+E	-G	A+D+B	W	'Left middle upper element
GW	29	3	H+E	-G	A+D+B	H+E	-G	A+D+B+D	W	'Left middle upper element
GW	30	3	H+E	-G	A+D+B+D	H	-G	A+D+B+D	W	'Left middle upper element
GW	31	5	H	-G	A+D+B+D	H	-G	A+D+B+D+C	W	'Left middle upper element
GW	32	5	H	G	F	H	G	A	W	'Right middle upper element
GW	33	3	H	G	A	H+E	G	A	W	'Right middle upper element
GW	34	3	H+E	G	A	H+E	G	A+D	W	'Right middle upper element
GW	35	3	H+E	G	A+D	H	G	A+D	W	'Right middle upper element
GW	36	5	H	G	A+D	H	G	A+D+B	W	'Right middle upper element
GW	37	3	H	G	A+D+B	H+E	G	A+D+B	W	'Right middle upper element
GW	38	3	H+E	G	A+D+B	H+E	G	A+D+B+D	W	'Right middle upper element
GW	39	3	H+E	G	A+D+B+D	H	G	A+D+B+D	W	'Right middle upper element
GW	40	5	H	G	A+D+B+D	H	G	A+D+B+D+C	W	'Right middle upper element
GW	41	5	H	-X	-F	H	-X	-A	W	'Left lower element
GW	42	3	H	-X	-A	H+E	-X	-A	W	'Left lower element
GW	43	3	H+E	-X	-A	H+E	-X	-A-D	W	'Left lower element
GW	44	3	H+E	-X	-A-D	H	-X	-A-D	W	'Left lower element
GW	45	5	H	-X	-A-D	H	-X	-A-D-B	W	'Left lower element
GW	46	3	H	-X	-A-D-B	H+E	-X	-A-D-B	W	'Left lower element
GW	47	3	H+E	-X	-A-D-B	H+E	-X	-A-D-B-D	W	'Left lower element
GW	48	3	H+E	-X	-A-D-B-D	H	-X	-A-D-B-D	W	'Left lower element
GW	49	5	H	-X	-A-D-B-D	H	-X	-A-D-B-D-C	W	'Left lower element
GW	50	5	H	X	-F	H	X	-A	W	'Right lower element
GW	51	3	H	X	-A	H+E	X	-A	W	'Right lower element
GW	52	3	H+E	X	-A	H+E	X	-A-D	W	'Right lower element
GW	53	3	H+E	X	-A-D	H	X	-A-D	W	'Right lower element
GW	54	5	H	X	-A-D	H	X	-A-D-B	W	'Right lower element
GW	55	3	H	X	-A-D-B	H+E	X	-A-D-B	W	'Right lower element
GW	56	3	H+E	X	-A-D-B	H+E	X	-A-D-B-D	W	'Right lower element
GW	57	3	H+E	X	-A-D-B-D	H	X	-A-D-B-D	W	'Right lower element
GW	58	5	H	X	-A-D-B-D	H	X	-A-D-B-D-C	W	'Right lower element
GW	59	5	H	-G	-F	H	-G	-A	W	'Left middle lower element
GW	60	3	H	-G	-A	H+E	-G	-A	W	'Left middle lower element
GW	61	3	H+E	-G	-A	H+E	-G	-A-D	W	'Left middle lower element
GW	62	3	H+E	-G	-A-D	H	-G	-A-D	W	'Left middle lower element
GW	63	5	H	-G	-A-D	H	-G	-A-D-B	W	'Left middle lower element
GW	64	3	H	-G	-A-D-B	H+E	-G	-A-D-B	W	'Left middle lower element
GW	65	3	H+E	-G	-A-D-B	H+E	-G	-A-D-B-D	W	'Left middle lower element
GW	66	3	H+E	-G	-A-D-B-D	H	-G	-A-D-B-D	W	'Left middle lower element
GW	67	5	H	-G	-A-D-B-D	H	-G	-A-D-B-D-C	W	'Left middle lower elementt
GW	68	5	H	G	-F	H	G	-A	W	'Right middle lower element
GW	69	3	H	G	-A	H+E	G	-A	W	'Right middle lower element
GW	70	3	H+E	G	-A	H+E	G	-A-D	W	'Right middle lower element
GW	71	3	H+E	G	-A-D	H	G	-A-D	W	'Right middle lower element
GW	72	5	H	G	-A-D	H	G	-A-D-B	W	'Right middle lower element
GW	73	3	H	G	-A-D-B	H+E	G	-A-D-B	W	'Right middle lower element
GW	74	3	H+E	G	-A-D-B	H+E	G	-A-D-B-D	W	'Right middle lower element
GW	75	3	H+E	G	-A-D-B-D	H	G	-A-D-B-D	W	'Right middle lower element
GW	76	5	H	G	-A-D-B-D	H	G	-A-D-B-D-C	W	'Right middle lower element
GS	0	0	300.0/2442.0
GE	0
GN	-1
EK
EX	0	4	1	0	1.	0	0
FR	0	0	0	0	2442	0
RP	0	73	73	1001	-90.	90.	5.	5.	10000.	
EN
