CM SBGH GH4 30 Collinear Rods, orig by John E. Davis, mod by wildwillie, 21Oct2010
CM Hi-VHF add on by wildwillie: 12 dBi (UHF & VHF), both SWR under 2.0.  All 7mm.
CM holl_ands mods: deleted CR-LF's, truncated a few numbers & added SY & FR/RP statements.
CM a justed the front to back gain for 191.5 mhz
CE
GW	1	3	0	-2.25	0	0	2.1594488	0	0.05900394
GW	2	7	0	2.1594488	0	0	7.67125987	5.51181102	0.13779528
GW	3	7	0	7.67125987	5.51181102	0	2.1594488	11.023622	0.13779528
GW	4	7	0	2.1594488	11.023622	0	7.67125987	16.5354331	0.13779528
GW	5	15	0	7.67125987	16.5354331	-20	7.6594488	19	0.13779528
GW	6	7	0	2.1594488	0	0	7.67125987	-5.511811	0.13779528
GW	7	7	0	7.67125987	-5.511811	0	2.1594488	-11.023622	0.13779528
GW	8	7	0	2.1594488	-11.023622	0	7.67125987	-16.535433	0.13779528
GW	10	7	0	-2.25	0	0	-7.761811	5.51181102	0.13779528
GW	11	7	0	-7.761811	5.51181102	0	-2.25	11.023622	0.13779528
GW	12	7	0	-2.25	11.023622	0	-7.761811	16.5354331	0.13779528
GW	13	15	0	-7.761811	16.5354331	-20	-7.7736221	19	0.13779528
GW	14	7	0	-2.25	0	0	-7.761811	-5.511811	0.13779528
GW	15	7	0	-7.761811	-5.511811	0	-2.25	-11.023622	0.13779528
GW	16	7	0	-2.25	-11.023622	0	-7.761811	-16.535433	0.13779528
GW	20	9	-3.78	13.143701	-15.94567	-3.78	0.584646	-15.94567	0.13779538
GW	21	9	-3.78	-13.23425	-15.94567	-3.78	-0.675197	-15.94567	0.13779538
GW	24	9	-3.78	12.395669	-4.844882	-3.78	0.466535	-4.844882	0.13779538
GW	25	9	-3.78	-12.48622	-4.844882	-3.78	-0.557087	-4.844882	0.13779538
GW	26	9	-3.78	12.395669	4.8448819	-3.78	0.466535	4.8448819	0.13779538
GW	27	9	-3.78	-12.48622	4.8448819	-3.78	-0.557087	4.8448819	0.13779538
GW	30	9	-3.78	13.143701	15.945669	-3.78	0.584646	15.945669	0.13779538
GW	31	9	-3.78	-13.23425	15.945669	-3.78	-0.675197	15.945669	0.13779538
GW	34	15	0	7.67125987	-16.535433	-20	7.6594488	-19	0.13779528
GW	35	15	0	-7.761811	-16.535433	-20	-7.7736221	-19	0.13779528
GW	44	19	-20	33.4094488	19	-20	7.6594488	19	0.13779528
GW	45	19	-20	-7.7736221	19	-20	-33.523622	19	0.13779528
GW	46	19	-20	33.4094488	-19	-20	7.6594488	-19	0.13779528
GW	47	19	-20	-7.7736221	-19	-20	-33.523622	-19	0.13779528
GW	52	13	-7	8.9094488	23	-7	-8.0905512	23	0.13779528
GW	53	13	-7	8.9094488	-22	-7	-8.0905512	-22	0.13779528
GW	54	19	-11	12.9094488	23	-11	-13.090551	23	0.13779528
GW	55	19	-11	12.9094488	-22	-11	-13.090551	-22	0.13779528
GW	56	17	-18	10.9094488	23	-18	-11.090551	23	0.13779528
GW	57	17	-18	10.9094488	-22	-18	-11.090551	-22	0.13779528
GW	58	27	-36	-1	8	-36	-37	8	0.13779528
GW	59	25	-36	33	26	-36	1	26	0.13779528
GW	60	25	-36	-1	26	-36	-33	26	0.13779528
GW	64	25	-36	33	-26	-36	1	-26	0.13779528
GW	65	27	-36	37	-8	-36	1	-8	0.13779528
GW	67	25	-36	-1	-26	-36	-33	-26	0.13779528
GW	68	27	-36	-1	-8	-36	-37	-8	0.13779528
GW	69	27	-36	37	8	-36	1	8	0.13779528
GW	70	25	-36	33	39	-36	1	39	0.13779528
GW	71	25	-36	-1	39	-36	-33	39	0.13779528
GW	72	25	-36	33	-39	-36	1	-39	0.13779528
GW	73	25	-36	-1	-39	-36	-32.909449	-39	0.13779528
GW	74	3	0	7.67125987	16.5354331	0	11.9212599	16.5354331	0.13779528
GW	75	3	0	-12.011811	16.5354331	0	-7.761811	16.5354331	0.13779528
GW	76	3	0	7.67125987	-16.535433	0	11.9212599	-16.535433	0.13779528
GW	77	3	0	-12.011811	-16.535433	0	-7.761811	-16.535433	0.13779528
GS	0	0	0.0254		' All in in.
GE	0
EK
LD	5	0	0	0	2.49e7	0
EX	0	1	2	0	1	0
GN	-1
FR	0	1	0	0	174	0
RP 0 1 73 1510 90 0 1 5 0 0